/*---------------------------------------------------------------------------*\
| =========                 |                                                 |
| \\      /  F ield         | OpenFOAM: The Open Source CFD Toolbox           |
|  \\    /   O peration     | Version:  5.x                                   |
|   \\  /    A nd           | Web:      www.OpenFOAM.org                      |
|    \\/     M anipulation  |                                                 |
\*---------------------------------------------------------------------------*/
Build  : 5.x-197d9d3bf20a
Exec   : massBoussinesqSimpleFoam
Date   : Oct 07 2020
Time   : 12:44:44
Host   : "ubuntu"
PID    : 87247
I/O    : uncollated
Case   : /home/sid/OpenFOAM/OpenFOAM-5.0/applications/solvers/testSolvers/massBoussinesqSimpleFoam/tutorial/64A215/264K
nProcs : 1
sigFpe : Enabling floating point exception trapping (FOAM_SIGFPE).
fileModificationChecking : Monitoring run-time modified files using timeStampMaster (fileModificationSkew 10)
allowSystemOperations : Allowing user-supplied system call operations

// * * * * * * * * * * * * * * * * * * * * * * * * * * * * * * * * * * * * * //
Create time

Create mesh for time = 0


SIMPLE: convergence criteria
    field p_rgh	 tolerance 1e-05
    field U	 tolerance 1e-05
    field T	 tolerance 1e-05
    field "(k|epsilon|omega)"	 tolerance 1e-05

Reading thermophysical properties

Reading field T

--> FOAM Warning : 
    From function groovyBCFvPatchField<Type>::groovyBCFvPatchField(const fvPatch& p,const DimensionedField<Type, volMesh>& iF,const dictionary& dict)
    in file groovyBCFvPatchField.C at line 136
    No value defined for T on wing therefore using the internal field next to the patch
Reading field p_rgh

Reading field U

--> FOAM Warning : 
    From function groovyBCFvPatchField<Type>::groovyBCFvPatchField(const fvPatch& p,const DimensionedField<Type, volMesh>& iF,const dictionary& dict)
    in file groovyBCFvPatchField.C at line 136
    No value defined for Y on wing therefore using the internal field next to the patch
Reading/calculating face flux field phi

Selecting incompressible transport model Newtonian
Creating turbulence model

Selecting turbulence model type laminar
Selecting laminar stress model Stokes
Reading field alphat


Reading g

Reading hRef
Calculating field g.h

No MRF models present

Radiation model not active: radiationProperties not found
Selecting radiationModel none
No finite volume options present


Starting time loop

forces forces:
    Not including porosity effects
forces forceCoeffs:
    Not including porosity effects
forceCoeffs forceCoeffs:
    Not including porosity effects
Time = 1

swak4Foam: Allocating new repository for sampledGlobalVariables
DILUPBiCGStab:  Solving for Y, Initial residual = 1, Final residual = 9.23345e-08, No Iterations 42
DILUPBiCGStab:  Solving for Y, Initial residual = 0.0744276, Final residual = 5.82196e-07, No Iterations 53
DILUPBiCGStab:  Solving for Y, Initial residual = 0.0719698, Final residual = 4.446e-07, No Iterations 53
DILUPBiCGStab:  Solving for Y, Initial residual = 0.0744179, Final residual = 4.71529e-07, No Iterations 53
DILUPBiCGStab:  Solving for Y, Initial residual = 0.0719062, Final residual = 5.85883e-07, No Iterations 53
DILUPBiCGStab:  Solving for Y, Initial residual = 0.0744179, Final residual = 4.97509e-07, No Iterations 53
DILUPBiCGStab:  Solving for Y, Initial residual = 0.0719062, Final residual = 4.19297e-07, No Iterations 53
DILUPBiCGStab:  Solving for Y, Initial residual = 0.0744179, Final residual = 4.80503e-07, No Iterations 53
DILUPBiCGStab:  Solving for Y, Initial residual = 0.0719062, Final residual = 5.89119e-07, No Iterations 53
DILUPBiCGStab:  Solving for Y, Initial residual = 0.0744179, Final residual = 4.79692e-07, No Iterations 53
DILUPBiCGStab:  Solving for Y, Initial residual = 0.0719062, Final residual = 7.30852e-07, No Iterations 53
DILUPBiCGStab:  Solving for Y, Initial residual = 0.0744181, Final residual = 4.62403e-07, No Iterations 53
DILUPBiCGStab:  Solving for Y, Initial residual = 0.0719062, Final residual = 5.26368e-07, No Iterations 53
DILUPBiCGStab:  Solving for Y, Initial residual = 0.0744179, Final residual = 8.9966e-07, No Iterations 52
DILUPBiCGStab:  Solving for Y, Initial residual = 0.0719065, Final residual = 4.45454e-07, No Iterations 53
DILUPBiCGStab:  Solving for Y, Initial residual = 0.0744179, Final residual = 4.63264e-07, No Iterations 53
DILUPBiCGStab:  Solving for Y, Initial residual = 0.0719062, Final residual = 6.06041e-07, No Iterations 53
DILUPBiCGStab:  Solving for Y, Initial residual = 0.0744178, Final residual = 5.80823e-07, No Iterations 53
DILUPBiCGStab:  Solving for Y, Initial residual = 0.0719062, Final residual = 5.46905e-07, No Iterations 53
DILUPBiCGStab:  Solving for Y, Initial residual = 0.0744179, Final residual = 6.11952e-07, No Iterations 53
DILUPBiCGStab:  Solving for Y, Initial residual = 0.0719061, Final residual = 5.38362e-07, No Iterations 53
DILUPBiCGStab:  Solving for Y, Initial residual = 0.0744179, Final residual = 9.14177e-07, No Iterations 52
DILUPBiCGStab:  Solving for Y, Initial residual = 0.0719065, Final residual = 5.63312e-07, No Iterations 53
DILUPBiCGStab:  Solving for Y, Initial residual = 0.0744179, Final residual = 7.15082e-07, No Iterations 53
DILUPBiCGStab:  Solving for Y, Initial residual = 0.0719062, Final residual = 4.05033e-07, No Iterations 53
DILUPBiCGStab:  Solving for Y, Initial residual = 0.0744179, Final residual = 5.2725e-07, No Iterations 53
DILUPBiCGStab:  Solving for Y, Initial residual = 0.0719063, Final residual = 4.68695e-07, No Iterations 53
DILUPBiCGStab:  Solving for Y, Initial residual = 0.0744179, Final residual = 4.90277e-07, No Iterations 53
DILUPBiCGStab:  Solving for Y, Initial residual = 0.0719062, Final residual = 5.13129e-07, No Iterations 53
DILUPBiCGStab:  Solving for Y, Initial residual = 0.0744179, Final residual = 7.40215e-07, No Iterations 53
DILUPBiCGStab:  Solving for Y, Initial residual = 0.0719063, Final residual = 5.5335e-07, No Iterations 53
DILUPBiCGStab:  Solving for Y, Initial residual = 0.0744179, Final residual = 4.28203e-07, No Iterations 53
DILUPBiCGStab:  Solving for Y, Initial residual = 0.0719062, Final residual = 4.81596e-07, No Iterations 53
DILUPBiCGStab:  Solving for Y, Initial residual = 0.0744179, Final residual = 4.68024e-07, No Iterations 53
DILUPBiCGStab:  Solving for Y, Initial residual = 0.0719062, Final residual = 5.79116e-07, No Iterations 53
DILUPBiCGStab:  Solving for Y, Initial residual = 0.0744179, Final residual = 5.64529e-07, No Iterations 53
DILUPBiCGStab:  Solving for Y, Initial residual = 0.0719062, Final residual = 4.39356e-07, No Iterations 53
DILUPBiCGStab:  Solving for Y, Initial residual = 0.0744179, Final residual = 5.06559e-07, No Iterations 53
DILUPBiCGStab:  Solving for Y, Initial residual = 0.0719062, Final residual = 5.36219e-07, No Iterations 53
DILUPBiCGStab:  Solving for Y, Initial residual = 0.0744179, Final residual = 8.40522e-07, No Iterations 52
DILUPBiCGStab:  Solving for Ux, Initial residual = 1, Final residual = 6.83439e-07, No Iterations 2
DILUPBiCGStab:  Solving for Uy, Initial residual = 0.999915, Final residual = 6.81173e-08, No Iterations 3
DILUPBiCGStab:  Solving for T, Initial residual = 1, Final residual = 1.40872e-07, No Iterations 4
DICPCG:  Solving for p_rgh, Initial residual = 1, Final residual = 0.00931561, No Iterations 75
time step continuity errors : sum local = 0.000103222, global = -7.41542e-06, cumulative = -7.41542e-06
ExecutionTime = 0.56 s  ClockTime = 0 s

Time = 2

DILUPBiCGStab:  Solving for Y, Initial residual = 0.131992, Final residual = 5.30706e-07, No Iterations 62
DILUPBiCGStab:  Solving for Y, Initial residual = 0.0798256, Final residual = 4.03722e-07, No Iterations 66
DILUPBiCGStab:  Solving for Y, Initial residual = 0.0765741, Final residual = 1.83579e-07, No Iterations 67
DILUPBiCGStab:  Solving for Y, Initial residual = 0.0798351, Final residual = 1.47225e-07, No Iterations 66
DILUPBiCGStab:  Solving for Y, Initial residual = 0.0763897, Final residual = 6.19979e-07, No Iterations 66
DILUPBiCGStab:  Solving for Y, Initial residual = 0.0798361, Final residual = 4.24374e-07, No Iterations 67
DILUPBiCGStab:  Solving for Y, Initial residual = 0.0763898, Final residual = 9.18705e-07, No Iterations 65
DILUPBiCGStab:  Solving for Y, Initial residual = 0.0798364, Final residual = 8.17074e-07, No Iterations 65
DILUPBiCGStab:  Solving for Y, Initial residual = 0.0763898, Final residual = 6.87365e-07, No Iterations 66
DILUPBiCGStab:  Solving for Y, Initial residual = 0.0798362, Final residual = 8.2913e-07, No Iterations 65
DILUPBiCGStab:  Solving for Y, Initial residual = 0.0763898, Final residual = 7.57448e-08, No Iterations 66
DILUPBiCGStab:  Solving for Y, Initial residual = 0.0798353, Final residual = 6.61243e-08, No Iterations 67
DILUPBiCGStab:  Solving for Y, Initial residual = 0.0763897, Final residual = 8.04276e-07, No Iterations 66
DILUPBiCGStab:  Solving for Y, Initial residual = 0.0798363, Final residual = 6.8661e-07, No Iterations 66
DILUPBiCGStab:  Solving for Y, Initial residual = 0.0763898, Final residual = 7.40983e-07, No Iterations 66
DILUPBiCGStab:  Solving for Y, Initial residual = 0.0798344, Final residual = 1.70234e-07, No Iterations 66
DILUPBiCGStab:  Solving for Y, Initial residual = 0.0763897, Final residual = 2.49074e-08, No Iterations 67
DILUPBiCGStab:  Solving for Y, Initial residual = 0.0798353, Final residual = 3.23564e-07, No Iterations 65
DILUPBiCGStab:  Solving for Y, Initial residual = 0.0763897, Final residual = 5.65268e-07, No Iterations 66
DILUPBiCGStab:  Solving for Y, Initial residual = 0.0798346, Final residual = 6.52447e-07, No Iterations 66
DILUPBiCGStab:  Solving for Y, Initial residual = 0.0763898, Final residual = 6.86212e-07, No Iterations 66
DILUPBiCGStab:  Solving for Y, Initial residual = 0.0798361, Final residual = 4.86419e-07, No Iterations 66
DILUPBiCGStab:  Solving for Y, Initial residual = 0.0763897, Final residual = 8.25937e-07, No Iterations 66
DILUPBiCGStab:  Solving for Y, Initial residual = 0.0798363, Final residual = 5.37836e-07, No Iterations 66
DILUPBiCGStab:  Solving for Y, Initial residual = 0.0763897, Final residual = 8.8126e-07, No Iterations 65
DILUPBiCGStab:  Solving for Y, Initial residual = 0.0798364, Final residual = 7.95657e-08, No Iterations 67
DILUPBiCGStab:  Solving for Y, Initial residual = 0.0763897, Final residual = 2.50636e-07, No Iterations 66
DILUPBiCGStab:  Solving for Y, Initial residual = 0.0798356, Final residual = 9.84912e-07, No Iterations 65
DILUPBiCGStab:  Solving for Y, Initial residual = 0.0763898, Final residual = 9.85069e-07, No Iterations 65
DILUPBiCGStab:  Solving for Y, Initial residual = 0.0798365, Final residual = 4.57884e-07, No Iterations 66
DILUPBiCGStab:  Solving for Y, Initial residual = 0.0763897, Final residual = 5.03285e-07, No Iterations 66
DILUPBiCGStab:  Solving for Y, Initial residual = 0.0798347, Final residual = 1.12539e-07, No Iterations 67
DILUPBiCGStab:  Solving for Y, Initial residual = 0.0763897, Final residual = 4.26869e-07, No Iterations 66
DILUPBiCGStab:  Solving for Y, Initial residual = 0.0798348, Final residual = 1.39569e-07, No Iterations 66
DILUPBiCGStab:  Solving for Y, Initial residual = 0.0763897, Final residual = 4.51383e-07, No Iterations 66
DILUPBiCGStab:  Solving for Y, Initial residual = 0.0798359, Final residual = 4.37804e-07, No Iterations 66
DILUPBiCGStab:  Solving for Y, Initial residual = 0.0763898, Final residual = 8.40466e-07, No Iterations 65
DILUPBiCGStab:  Solving for Y, Initial residual = 0.0798363, Final residual = 3.44101e-07, No Iterations 67
DILUPBiCGStab:  Solving for Y, Initial residual = 0.0763898, Final residual = 1.50766e-08, No Iterations 68
DILUPBiCGStab:  Solving for Y, Initial residual = 0.0798353, Final residual = 8.38419e-08, No Iterations 67
DILUPBiCGStab:  Solving for Ux, Initial residual = 0.398013, Final residual = 1.61792e-07, No Iterations 3
DILUPBiCGStab:  Solving for Uy, Initial residual = 0.39551, Final residual = 4.1152e-07, No Iterations 3
DILUPBiCGStab:  Solving for T, Initial residual = 0.0307621, Final residual = 9.73895e-08, No Iterations 3
DICPCG:  Solving for p_rgh, Initial residual = 0.522843, Final residual = 0.00511224, No Iterations 58
time step continuity errors : sum local = 0.000370434, global = 1.228e-05, cumulative = 4.86453e-06
ExecutionTime = 1.14 s  ClockTime = 1 s

Time = 3

DILUPBiCGStab:  Solving for Y, Initial residual = 0.0840542, Final residual = 1.36551e-07, No Iterations 66
DILUPBiCGStab:  Solving for Y, Initial residual = 0.0809523, Final residual = 6.31737e-07, No Iterations 66
DILUPBiCGStab:  Solving for Y, Initial residual = 0.0774065, Final residual = 6.58398e-07, No Iterations 65
DILUPBiCGStab:  Solving for Y, Initial residual = 0.0809532, Final residual = 1.52881e-07, No Iterations 67
DILUPBiCGStab:  Solving for Y, Initial residual = 0.0774016, Final residual = 2.57222e-08, No Iterations 67
DILUPBiCGStab:  Solving for Y, Initial residual = 0.0809524, Final residual = 1.00303e-07, No Iterations 67
DILUPBiCGStab:  Solving for Y, Initial residual = 0.0774016, Final residual = 6.8787e-07, No Iterations 66
DILUPBiCGStab:  Solving for Y, Initial residual = 0.0809515, Final residual = 8.67128e-07, No Iterations 64
DILUPBiCGStab:  Solving for Y, Initial residual = 0.0774015, Final residual = 4.39592e-07, No Iterations 66
DILUPBiCGStab:  Solving for Y, Initial residual = 0.0809529, Final residual = 6.11068e-07, No Iterations 65
DILUPBiCGStab:  Solving for Y, Initial residual = 0.0774017, Final residual = 9.5243e-08, No Iterations 66
DILUPBiCGStab:  Solving for Y, Initial residual = 0.0809525, Final residual = 9.4223e-08, No Iterations 67
DILUPBiCGStab:  Solving for Y, Initial residual = 0.0774016, Final residual = 2.70755e-08, No Iterations 67
DILUPBiCGStab:  Solving for Y, Initial residual = 0.0809524, Final residual = 1.18594e-07, No Iterations 66
DILUPBiCGStab:  Solving for Y, Initial residual = 0.0774016, Final residual = 3.07807e-07, No Iterations 66
DILUPBiCGStab:  Solving for Y, Initial residual = 0.080952, Final residual = 4.4576e-07, No Iterations 66
DILUPBiCGStab:  Solving for Y, Initial residual = 0.0774016, Final residual = 7.05185e-07, No Iterations 66
DILUPBiCGStab:  Solving for Y, Initial residual = 0.0809515, Final residual = 3.26704e-07, No Iterations 65
DILUPBiCGStab:  Solving for Y, Initial residual = 0.0774016, Final residual = 7.1679e-08, No Iterations 66
DILUPBiCGStab:  Solving for Y, Initial residual = 0.0809523, Final residual = 1.83201e-07, No Iterations 66
DILUPBiCGStab:  Solving for Y, Initial residual = 0.0774016, Final residual = 8.27735e-07, No Iterations 66
DILUPBiCGStab:  Solving for Y, Initial residual = 0.0809534, Final residual = 3.84564e-07, No Iterations 66
DILUPBiCGStab:  Solving for Y, Initial residual = 0.0774016, Final residual = 4.30444e-07, No Iterations 67
DILUPBiCGStab:  Solving for Y, Initial residual = 0.0809529, Final residual = 3.94096e-08, No Iterations 67
DILUPBiCGStab:  Solving for Y, Initial residual = 0.0774016, Final residual = 9.52158e-07, No Iterations 65
DILUPBiCGStab:  Solving for Y, Initial residual = 0.0809535, Final residual = 8.8439e-07, No Iterations 66
DILUPBiCGStab:  Solving for Y, Initial residual = 0.0774015, Final residual = 8.67445e-07, No Iterations 66
DILUPBiCGStab:  Solving for Y, Initial residual = 0.0809534, Final residual = 4.62292e-08, No Iterations 66
DILUPBiCGStab:  Solving for Y, Initial residual = 0.0774016, Final residual = 5.65177e-07, No Iterations 65
DILUPBiCGStab:  Solving for Y, Initial residual = 0.080953, Final residual = 5.69063e-07, No Iterations 65
DILUPBiCGStab:  Solving for Y, Initial residual = 0.0774016, Final residual = 1.22085e-07, No Iterations 67
DILUPBiCGStab:  Solving for Y, Initial residual = 0.0809525, Final residual = 5.0095e-07, No Iterations 66
DILUPBiCGStab:  Solving for Y, Initial residual = 0.0774015, Final residual = 8.02697e-08, No Iterations 66
DILUPBiCGStab:  Solving for Y, Initial residual = 0.0809523, Final residual = 7.23464e-08, No Iterations 66
DILUPBiCGStab:  Solving for Y, Initial residual = 0.0774016, Final residual = 3.30519e-07, No Iterations 66
DILUPBiCGStab:  Solving for Y, Initial residual = 0.0809519, Final residual = 3.23194e-08, No Iterations 67
DILUPBiCGStab:  Solving for Y, Initial residual = 0.0774016, Final residual = 2.86015e-07, No Iterations 66
DILUPBiCGStab:  Solving for Y, Initial residual = 0.080952, Final residual = 8.51826e-07, No Iterations 65
DILUPBiCGStab:  Solving for Y, Initial residual = 0.0774017, Final residual = 7.05506e-08, No Iterations 67
DILUPBiCGStab:  Solving for Y, Initial residual = 0.0809523, Final residual = 1.79646e-07, No Iterations 66
DILUPBiCGStab:  Solving for Ux, Initial residual = 0.0966213, Final residual = 3.16257e-07, No Iterations 2
DILUPBiCGStab:  Solving for Uy, Initial residual = 0.105237, Final residual = 3.12405e-07, No Iterations 2
DILUPBiCGStab:  Solving for T, Initial residual = 0.015168, Final residual = 6.17739e-07, No Iterations 2
DICPCG:  Solving for p_rgh, Initial residual = 0.224485, Final residual = 0.0021112, No Iterations 61
time step continuity errors : sum local = 0.000165257, global = 7.92981e-06, cumulative = 1.27943e-05
ExecutionTime = 1.74 s  ClockTime = 1 s

Time = 4

DILUPBiCGStab:  Solving for Y, Initial residual = 0.0807788, Final residual = 3.98149e-07, No Iterations 65
DILUPBiCGStab:  Solving for Y, Initial residual = 0.08099, Final residual = 5.11517e-07, No Iterations 66
DILUPBiCGStab:  Solving for Y, Initial residual = 0.0774384, Final residual = 9.78171e-07, No Iterations 66
DILUPBiCGStab:  Solving for Y, Initial residual = 0.0809885, Final residual = 1.16011e-07, No Iterations 66
DILUPBiCGStab:  Solving for Y, Initial residual = 0.077437, Final residual = 2.49188e-08, No Iterations 67
DILUPBiCGStab:  Solving for Y, Initial residual = 0.0809897, Final residual = 4.22e-08, No Iterations 67
DILUPBiCGStab:  Solving for Y, Initial residual = 0.077437, Final residual = 1.76648e-07, No Iterations 65
DILUPBiCGStab:  Solving for Y, Initial residual = 0.0809898, Final residual = 5.42953e-07, No Iterations 66
DILUPBiCGStab:  Solving for Y, Initial residual = 0.0774369, Final residual = 2.71959e-08, No Iterations 67
DILUPBiCGStab:  Solving for Y, Initial residual = 0.0809897, Final residual = 8.46382e-08, No Iterations 67
DILUPBiCGStab:  Solving for Y, Initial residual = 0.077437, Final residual = 1.93207e-07, No Iterations 66
DILUPBiCGStab:  Solving for Y, Initial residual = 0.0809899, Final residual = 9.84023e-07, No Iterations 66
DILUPBiCGStab:  Solving for Y, Initial residual = 0.0774371, Final residual = 9.89471e-07, No Iterations 65
DILUPBiCGStab:  Solving for Y, Initial residual = 0.0809909, Final residual = 1.40768e-07, No Iterations 66
DILUPBiCGStab:  Solving for Y, Initial residual = 0.077437, Final residual = 5.13516e-08, No Iterations 67
DILUPBiCGStab:  Solving for Y, Initial residual = 0.0809896, Final residual = 6.59018e-08, No Iterations 66
DILUPBiCGStab:  Solving for Y, Initial residual = 0.077437, Final residual = 1.16486e-07, No Iterations 66
DILUPBiCGStab:  Solving for Y, Initial residual = 0.0809895, Final residual = 5.57451e-08, No Iterations 67
DILUPBiCGStab:  Solving for Y, Initial residual = 0.077437, Final residual = 2.46267e-07, No Iterations 67
DILUPBiCGStab:  Solving for Y, Initial residual = 0.08099, Final residual = 4.86957e-07, No Iterations 66
DILUPBiCGStab:  Solving for Y, Initial residual = 0.077437, Final residual = 3.63154e-08, No Iterations 66
DILUPBiCGStab:  Solving for Y, Initial residual = 0.0809897, Final residual = 5.75188e-08, No Iterations 67
DILUPBiCGStab:  Solving for Y, Initial residual = 0.077437, Final residual = 1.32316e-07, No Iterations 67
DILUPBiCGStab:  Solving for Y, Initial residual = 0.0809898, Final residual = 9.78732e-07, No Iterations 65
DILUPBiCGStab:  Solving for Y, Initial residual = 0.0774371, Final residual = 1.258e-07, No Iterations 67
DILUPBiCGStab:  Solving for Y, Initial residual = 0.0809895, Final residual = 6.31341e-08, No Iterations 66
DILUPBiCGStab:  Solving for Y, Initial residual = 0.077437, Final residual = 8.57342e-07, No Iterations 66
DILUPBiCGStab:  Solving for Y, Initial residual = 0.0809907, Final residual = 2.32371e-08, No Iterations 67
DILUPBiCGStab:  Solving for Y, Initial residual = 0.077437, Final residual = 5.36919e-08, No Iterations 66
DILUPBiCGStab:  Solving for Y, Initial residual = 0.0809897, Final residual = 2.54293e-07, No Iterations 66
DILUPBiCGStab:  Solving for Y, Initial residual = 0.077437, Final residual = 7.34202e-08, No Iterations 66
DILUPBiCGStab:  Solving for Y, Initial residual = 0.0809897, Final residual = 4.84036e-07, No Iterations 66
DILUPBiCGStab:  Solving for Y, Initial residual = 0.077437, Final residual = 2.50249e-07, No Iterations 66
DILUPBiCGStab:  Solving for Y, Initial residual = 0.0809894, Final residual = 1.23701e-07, No Iterations 66
DILUPBiCGStab:  Solving for Y, Initial residual = 0.077437, Final residual = 9.541e-07, No Iterations 65
DILUPBiCGStab:  Solving for Y, Initial residual = 0.0809909, Final residual = 4.53492e-08, No Iterations 67
DILUPBiCGStab:  Solving for Y, Initial residual = 0.077437, Final residual = 4.98493e-07, No Iterations 66
DILUPBiCGStab:  Solving for Y, Initial residual = 0.0809903, Final residual = 5.44595e-07, No Iterations 66
DILUPBiCGStab:  Solving for Y, Initial residual = 0.0774371, Final residual = 1.06018e-07, No Iterations 67
DILUPBiCGStab:  Solving for Y, Initial residual = 0.0809898, Final residual = 3.87102e-07, No Iterations 65
DILUPBiCGStab:  Solving for Ux, Initial residual = 0.0834171, Final residual = 2.25644e-07, No Iterations 2
DILUPBiCGStab:  Solving for Uy, Initial residual = 0.0892549, Final residual = 3.45643e-07, No Iterations 2
DILUPBiCGStab:  Solving for T, Initial residual = 0.0100029, Final residual = 4.12101e-07, No Iterations 2
DICPCG:  Solving for p_rgh, Initial residual = 0.325164, Final residual = 0.00286901, No Iterations 50
time step continuity errors : sum local = 0.000156469, global = -4.73561e-06, cumulative = 8.05873e-06
ExecutionTime = 2.32 s  ClockTime = 2 s

Time = 5

DILUPBiCGStab:  Solving for Y, Initial residual = 0.0793997, Final residual = 6.07173e-08, No Iterations 67
DILUPBiCGStab:  Solving for Y, Initial residual = 0.0814125, Final residual = 7.83186e-07, No Iterations 65
DILUPBiCGStab:  Solving for Y, Initial residual = 0.0778232, Final residual = 6.66266e-07, No Iterations 66
DILUPBiCGStab:  Solving for Y, Initial residual = 0.081412, Final residual = 7.11077e-07, No Iterations 66
DILUPBiCGStab:  Solving for Y, Initial residual = 0.0778232, Final residual = 6.6118e-07, No Iterations 64
DILUPBiCGStab:  Solving for Y, Initial residual = 0.0814134, Final residual = 3.46841e-08, No Iterations 67
DILUPBiCGStab:  Solving for Y, Initial residual = 0.0778232, Final residual = 6.8756e-07, No Iterations 66
DILUPBiCGStab:  Solving for Y, Initial residual = 0.081412, Final residual = 1.08536e-07, No Iterations 66
DILUPBiCGStab:  Solving for Y, Initial residual = 0.0778231, Final residual = 9.9002e-07, No Iterations 65
DILUPBiCGStab:  Solving for Y, Initial residual = 0.0814141, Final residual = 5.43466e-07, No Iterations 66
DILUPBiCGStab:  Solving for Y, Initial residual = 0.0778231, Final residual = 9.23669e-07, No Iterations 65
DILUPBiCGStab:  Solving for Y, Initial residual = 0.081414, Final residual = 6.97226e-07, No Iterations 66
DILUPBiCGStab:  Solving for Y, Initial residual = 0.0778231, Final residual = 8.48737e-07, No Iterations 66
DILUPBiCGStab:  Solving for Y, Initial residual = 0.0814139, Final residual = 6.79143e-07, No Iterations 65
DILUPBiCGStab:  Solving for Y, Initial residual = 0.0778233, Final residual = 3.93398e-08, No Iterations 67
DILUPBiCGStab:  Solving for Y, Initial residual = 0.0814128, Final residual = 2.70173e-07, No Iterations 66
DILUPBiCGStab:  Solving for Y, Initial residual = 0.0778231, Final residual = 5.02779e-07, No Iterations 66
DILUPBiCGStab:  Solving for Y, Initial residual = 0.0814135, Final residual = 3.39179e-07, No Iterations 66
DILUPBiCGStab:  Solving for Y, Initial residual = 0.0778231, Final residual = 7.90546e-07, No Iterations 65
DILUPBiCGStab:  Solving for Y, Initial residual = 0.0814138, Final residual = 1.82403e-07, No Iterations 65
DILUPBiCGStab:  Solving for Y, Initial residual = 0.0778232, Final residual = 4.04488e-07, No Iterations 66
DILUPBiCGStab:  Solving for Y, Initial residual = 0.0814133, Final residual = 1.90397e-07, No Iterations 66
DILUPBiCGStab:  Solving for Y, Initial residual = 0.0778232, Final residual = 8.71043e-07, No Iterations 65
DILUPBiCGStab:  Solving for Y, Initial residual = 0.0814139, Final residual = 6.71459e-07, No Iterations 66
DILUPBiCGStab:  Solving for Y, Initial residual = 0.0778231, Final residual = 5.1254e-07, No Iterations 67
DILUPBiCGStab:  Solving for Y, Initial residual = 0.0814135, Final residual = 7.04899e-07, No Iterations 66
DILUPBiCGStab:  Solving for Y, Initial residual = 0.0778231, Final residual = 5.7951e-07, No Iterations 65
DILUPBiCGStab:  Solving for Y, Initial residual = 0.0814136, Final residual = 2.52344e-07, No Iterations 66
DILUPBiCGStab:  Solving for Y, Initial residual = 0.0778232, Final residual = 2.56074e-08, No Iterations 67
DILUPBiCGStab:  Solving for Y, Initial residual = 0.0814129, Final residual = 3.06971e-08, No Iterations 67
DILUPBiCGStab:  Solving for Y, Initial residual = 0.0778232, Final residual = 8.4105e-07, No Iterations 64
DILUPBiCGStab:  Solving for Y, Initial residual = 0.0814137, Final residual = 5.87317e-07, No Iterations 66
DILUPBiCGStab:  Solving for Y, Initial residual = 0.0778231, Final residual = 7.44067e-08, No Iterations 67
DILUPBiCGStab:  Solving for Y, Initial residual = 0.0814129, Final residual = 5.52309e-07, No Iterations 66
DILUPBiCGStab:  Solving for Y, Initial residual = 0.0778231, Final residual = 1.46032e-07, No Iterations 66
DILUPBiCGStab:  Solving for Y, Initial residual = 0.081413, Final residual = 6.62749e-07, No Iterations 66
DILUPBiCGStab:  Solving for Y, Initial residual = 0.0778231, Final residual = 4.66208e-07, No Iterations 66
DILUPBiCGStab:  Solving for Y, Initial residual = 0.0814134, Final residual = 8.55967e-07, No Iterations 66
DILUPBiCGStab:  Solving for Y, Initial residual = 0.0778231, Final residual = 2.91217e-08, No Iterations 67
DILUPBiCGStab:  Solving for Y, Initial residual = 0.0814129, Final residual = 6.04774e-07, No Iterations 66
DILUPBiCGStab:  Solving for Ux, Initial residual = 0.0700781, Final residual = 2.14716e-07, No Iterations 2
DILUPBiCGStab:  Solving for Uy, Initial residual = 0.076624, Final residual = 3.14911e-07, No Iterations 2
DILUPBiCGStab:  Solving for T, Initial residual = 0.00739058, Final residual = 3.03771e-07, No Iterations 2
DICPCG:  Solving for p_rgh, Initial residual = 0.357074, Final residual = 0.00299584, No Iterations 58
time step continuity errors : sum local = 9.70119e-05, global = -1.73935e-06, cumulative = 6.31938e-06
ExecutionTime = 2.91 s  ClockTime = 3 s

Time = 6

DILUPBiCGStab:  Solving for Y, Initial residual = 0.0793905, Final residual = 9.75398e-07, No Iterations 65
DILUPBiCGStab:  Solving for Y, Initial residual = 0.0815963, Final residual = 9.31227e-07, No Iterations 65
DILUPBiCGStab:  Solving for Y, Initial residual = 0.0779921, Final residual = 9.06891e-08, No Iterations 67
DILUPBiCGStab:  Solving for Y, Initial residual = 0.0815976, Final residual = 5.19031e-07, No Iterations 66
DILUPBiCGStab:  Solving for Y, Initial residual = 0.077992, Final residual = 3.10745e-08, No Iterations 67
DILUPBiCGStab:  Solving for Y, Initial residual = 0.0815977, Final residual = 2.0993e-07, No Iterations 66
DILUPBiCGStab:  Solving for Y, Initial residual = 0.077992, Final residual = 2.65371e-07, No Iterations 66
DILUPBiCGStab:  Solving for Y, Initial residual = 0.081598, Final residual = 8.71406e-08, No Iterations 67
DILUPBiCGStab:  Solving for Y, Initial residual = 0.077992, Final residual = 9.84308e-07, No Iterations 65
DILUPBiCGStab:  Solving for Y, Initial residual = 0.0815988, Final residual = 7.45071e-07, No Iterations 66
DILUPBiCGStab:  Solving for Y, Initial residual = 0.0779921, Final residual = 6.73895e-08, No Iterations 67
DILUPBiCGStab:  Solving for Y, Initial residual = 0.0815976, Final residual = 9.14097e-07, No Iterations 65
DILUPBiCGStab:  Solving for Y, Initial residual = 0.0779921, Final residual = 1.21949e-07, No Iterations 67
DILUPBiCGStab:  Solving for Y, Initial residual = 0.0815978, Final residual = 1.93861e-07, No Iterations 65
DILUPBiCGStab:  Solving for Y, Initial residual = 0.077992, Final residual = 1.0675e-07, No Iterations 66
DILUPBiCGStab:  Solving for Y, Initial residual = 0.0815976, Final residual = 5.63956e-08, No Iterations 67
DILUPBiCGStab:  Solving for Y, Initial residual = 0.077992, Final residual = 8.00467e-07, No Iterations 66
DILUPBiCGStab:  Solving for Y, Initial residual = 0.0815987, Final residual = 1.04135e-07, No Iterations 66
DILUPBiCGStab:  Solving for Y, Initial residual = 0.0779921, Final residual = 9.27725e-07, No Iterations 66
DILUPBiCGStab:  Solving for Y, Initial residual = 0.0815965, Final residual = 3.54261e-07, No Iterations 66
DILUPBiCGStab:  Solving for Y, Initial residual = 0.077992, Final residual = 8.66607e-07, No Iterations 66
DILUPBiCGStab:  Solving for Y, Initial residual = 0.0815966, Final residual = 3.88362e-07, No Iterations 66
DILUPBiCGStab:  Solving for Y, Initial residual = 0.077992, Final residual = 6.70181e-08, No Iterations 67
DILUPBiCGStab:  Solving for Y, Initial residual = 0.0815977, Final residual = 1.8081e-07, No Iterations 66
DILUPBiCGStab:  Solving for Y, Initial residual = 0.077992, Final residual = 5.60619e-07, No Iterations 67
DILUPBiCGStab:  Solving for Y, Initial residual = 0.0815983, Final residual = 5.56422e-08, No Iterations 67
DILUPBiCGStab:  Solving for Y, Initial residual = 0.077992, Final residual = 9.49287e-08, No Iterations 67
DILUPBiCGStab:  Solving for Y, Initial residual = 0.0815978, Final residual = 1.56102e-07, No Iterations 66
DILUPBiCGStab:  Solving for Y, Initial residual = 0.077992, Final residual = 5.23954e-07, No Iterations 66
DILUPBiCGStab:  Solving for Y, Initial residual = 0.081597, Final residual = 1.97263e-07, No Iterations 67
DILUPBiCGStab:  Solving for Y, Initial residual = 0.077992, Final residual = 2.8608e-08, No Iterations 67
DILUPBiCGStab:  Solving for Y, Initial residual = 0.0815977, Final residual = 5.90918e-08, No Iterations 67
DILUPBiCGStab:  Solving for Y, Initial residual = 0.077992, Final residual = 9.98679e-07, No Iterations 65
DILUPBiCGStab:  Solving for Y, Initial residual = 0.0815989, Final residual = 6.67204e-07, No Iterations 66
DILUPBiCGStab:  Solving for Y, Initial residual = 0.0779921, Final residual = 6.61516e-07, No Iterations 66
DILUPBiCGStab:  Solving for Y, Initial residual = 0.0815985, Final residual = 8.64754e-07, No Iterations 66
DILUPBiCGStab:  Solving for Y, Initial residual = 0.0779919, Final residual = 9.88688e-07, No Iterations 65
DILUPBiCGStab:  Solving for Y, Initial residual = 0.0815989, Final residual = 1.98597e-07, No Iterations 66
DILUPBiCGStab:  Solving for Y, Initial residual = 0.077992, Final residual = 6.35172e-08, No Iterations 67
DILUPBiCGStab:  Solving for Y, Initial residual = 0.0815976, Final residual = 1.1511e-07, No Iterations 67
DILUPBiCGStab:  Solving for Ux, Initial residual = 0.0151529, Final residual = 2.02484e-07, No Iterations 2
DILUPBiCGStab:  Solving for Uy, Initial residual = 0.0160795, Final residual = 7.03435e-08, No Iterations 2
DILUPBiCGStab:  Solving for T, Initial residual = 0.00581647, Final residual = 2.3827e-07, No Iterations 2
DICPCG:  Solving for p_rgh, Initial residual = 0.292805, Final residual = 0.0027001, No Iterations 33
time step continuity errors : sum local = 5.41081e-05, global = -9.67338e-06, cumulative = -3.354e-06
ExecutionTime = 3.49 s  ClockTime = 3 s

Time = 7

DILUPBiCGStab:  Solving for Y, Initial residual = 0.0790128, Final residual = 9.72263e-07, No Iterations 65
DILUPBiCGStab:  Solving for Y, Initial residual = 0.0817189, Final residual = 4.90553e-08, No Iterations 67
DILUPBiCGStab:  Solving for Y, Initial residual = 0.0781021, Final residual = 8.80787e-07, No Iterations 65
DILUPBiCGStab:  Solving for Y, Initial residual = 0.081719, Final residual = 2.50142e-07, No Iterations 65
DILUPBiCGStab:  Solving for Y, Initial residual = 0.078102, Final residual = 4.51653e-07, No Iterations 66
DILUPBiCGStab:  Solving for Y, Initial residual = 0.0817185, Final residual = 4.25175e-07, No Iterations 66
DILUPBiCGStab:  Solving for Y, Initial residual = 0.078102, Final residual = 5.93397e-07, No Iterations 66
DILUPBiCGStab:  Solving for Y, Initial residual = 0.0817186, Final residual = 4.732e-07, No Iterations 66
DILUPBiCGStab:  Solving for Y, Initial residual = 0.078102, Final residual = 3.8799e-07, No Iterations 66
DILUPBiCGStab:  Solving for Y, Initial residual = 0.0817184, Final residual = 7.04759e-07, No Iterations 66
DILUPBiCGStab:  Solving for Y, Initial residual = 0.0781018, Final residual = 9.27295e-07, No Iterations 65
DILUPBiCGStab:  Solving for Y, Initial residual = 0.081719, Final residual = 6.79001e-07, No Iterations 66
DILUPBiCGStab:  Solving for Y, Initial residual = 0.0781018, Final residual = 9.50973e-07, No Iterations 65
DILUPBiCGStab:  Solving for Y, Initial residual = 0.0817191, Final residual = 3.41118e-08, No Iterations 67
DILUPBiCGStab:  Solving for Y, Initial residual = 0.0781019, Final residual = 5.22201e-08, No Iterations 67
DILUPBiCGStab:  Solving for Y, Initial residual = 0.081718, Final residual = 2.94426e-07, No Iterations 66
DILUPBiCGStab:  Solving for Y, Initial residual = 0.0781019, Final residual = 6.33932e-08, No Iterations 67
DILUPBiCGStab:  Solving for Y, Initial residual = 0.0817178, Final residual = 3.71059e-07, No Iterations 66
DILUPBiCGStab:  Solving for Y, Initial residual = 0.0781019, Final residual = 5.35375e-08, No Iterations 67
DILUPBiCGStab:  Solving for Y, Initial residual = 0.081718, Final residual = 9.03795e-07, No Iterations 64
DILUPBiCGStab:  Solving for Y, Initial residual = 0.0781018, Final residual = 2.6818e-08, No Iterations 67
DILUPBiCGStab:  Solving for Y, Initial residual = 0.0817179, Final residual = 9.73942e-07, No Iterations 65
DILUPBiCGStab:  Solving for Y, Initial residual = 0.0781019, Final residual = 5.85863e-08, No Iterations 67
DILUPBiCGStab:  Solving for Y, Initial residual = 0.0817179, Final residual = 8.84197e-07, No Iterations 65
DILUPBiCGStab:  Solving for Y, Initial residual = 0.0781019, Final residual = 3.9865e-07, No Iterations 66
DILUPBiCGStab:  Solving for Y, Initial residual = 0.0817184, Final residual = 2.86676e-07, No Iterations 66
DILUPBiCGStab:  Solving for Y, Initial residual = 0.0781019, Final residual = 8.31555e-08, No Iterations 67
DILUPBiCGStab:  Solving for Y, Initial residual = 0.0817178, Final residual = 3.36552e-07, No Iterations 66
DILUPBiCGStab:  Solving for Y, Initial residual = 0.0781019, Final residual = 2.95266e-07, No Iterations 66
DILUPBiCGStab:  Solving for Y, Initial residual = 0.0817175, Final residual = 2.51074e-07, No Iterations 66
DILUPBiCGStab:  Solving for Y, Initial residual = 0.0781019, Final residual = 5.23807e-07, No Iterations 66
DILUPBiCGStab:  Solving for Y, Initial residual = 0.0817172, Final residual = 7.08926e-07, No Iterations 66
DILUPBiCGStab:  Solving for Y, Initial residual = 0.0781018, Final residual = 6.13109e-07, No Iterations 66
DILUPBiCGStab:  Solving for Y, Initial residual = 0.0817171, Final residual = 7.75375e-07, No Iterations 65
DILUPBiCGStab:  Solving for Y, Initial residual = 0.078102, Final residual = 3.87023e-07, No Iterations 66
DILUPBiCGStab:  Solving for Y, Initial residual = 0.0817184, Final residual = 6.75549e-08, No Iterations 66
DILUPBiCGStab:  Solving for Y, Initial residual = 0.0781019, Final residual = 3.94478e-07, No Iterations 67
DILUPBiCGStab:  Solving for Y, Initial residual = 0.0817184, Final residual = 1.63582e-07, No Iterations 67
DILUPBiCGStab:  Solving for Y, Initial residual = 0.0781019, Final residual = 3.238e-08, No Iterations 68
DILUPBiCGStab:  Solving for Y, Initial residual = 0.0817179, Final residual = 8.25576e-07, No Iterations 66
DILUPBiCGStab:  Solving for Ux, Initial residual = 0.0227912, Final residual = 7.12148e-08, No Iterations 2
DILUPBiCGStab:  Solving for Uy, Initial residual = 0.0239446, Final residual = 7.03136e-08, No Iterations 2
DILUPBiCGStab:  Solving for T, Initial residual = 0.00475725, Final residual = 1.94765e-07, No Iterations 2
DICPCG:  Solving for p_rgh, Initial residual = 0.176616, Final residual = 0.00165853, No Iterations 57
time step continuity errors : sum local = 3.75759e-05, global = 6.05254e-07, cumulative = -2.74875e-06
ExecutionTime = 4.08 s  ClockTime = 4 s

Time = 8

DILUPBiCGStab:  Solving for Y, Initial residual = 0.0788599, Final residual = 1.79578e-07, No Iterations 67
DILUPBiCGStab:  Solving for Y, Initial residual = 0.0818313, Final residual = 6.95599e-08, No Iterations 67
DILUPBiCGStab:  Solving for Y, Initial residual = 0.078206, Final residual = 8.25103e-08, No Iterations 67
DILUPBiCGStab:  Solving for Y, Initial residual = 0.0818315, Final residual = 9.80156e-07, No Iterations 66
DILUPBiCGStab:  Solving for Y, Initial residual = 0.0782057, Final residual = 4.22686e-08, No Iterations 67
DILUPBiCGStab:  Solving for Y, Initial residual = 0.0818316, Final residual = 1.13744e-07, No Iterations 67
DILUPBiCGStab:  Solving for Y, Initial residual = 0.0782059, Final residual = 3.58e-07, No Iterations 65
DILUPBiCGStab:  Solving for Y, Initial residual = 0.0818321, Final residual = 4.26493e-07, No Iterations 66
DILUPBiCGStab:  Solving for Y, Initial residual = 0.0782058, Final residual = 8.4476e-08, No Iterations 67
DILUPBiCGStab:  Solving for Y, Initial residual = 0.0818317, Final residual = 4.72901e-07, No Iterations 66
DILUPBiCGStab:  Solving for Y, Initial residual = 0.0782058, Final residual = 4.02602e-08, No Iterations 67
DILUPBiCGStab:  Solving for Y, Initial residual = 0.0818316, Final residual = 8.47303e-07, No Iterations 64
DILUPBiCGStab:  Solving for Y, Initial residual = 0.0782058, Final residual = 9.89125e-07, No Iterations 65
DILUPBiCGStab:  Solving for Y, Initial residual = 0.0818329, Final residual = 7.21935e-07, No Iterations 66
DILUPBiCGStab:  Solving for Y, Initial residual = 0.078206, Final residual = 5.99597e-07, No Iterations 65
DILUPBiCGStab:  Solving for Y, Initial residual = 0.0818324, Final residual = 1.26401e-07, No Iterations 67
DILUPBiCGStab:  Solving for Y, Initial residual = 0.0782058, Final residual = 5.42919e-07, No Iterations 66
DILUPBiCGStab:  Solving for Y, Initial residual = 0.0818309, Final residual = 4.47866e-07, No Iterations 66
DILUPBiCGStab:  Solving for Y, Initial residual = 0.0782059, Final residual = 2.80562e-08, No Iterations 68
DILUPBiCGStab:  Solving for Y, Initial residual = 0.0818317, Final residual = 7.25555e-07, No Iterations 65
DILUPBiCGStab:  Solving for Y, Initial residual = 0.0782059, Final residual = 9.7475e-07, No Iterations 66
DILUPBiCGStab:  Solving for Y, Initial residual = 0.0818304, Final residual = 1.04012e-07, No Iterations 67
DILUPBiCGStab:  Solving for Y, Initial residual = 0.0782058, Final residual = 5.18895e-07, No Iterations 66
DILUPBiCGStab:  Solving for Y, Initial residual = 0.081831, Final residual = 2.79895e-07, No Iterations 66
DILUPBiCGStab:  Solving for Y, Initial residual = 0.0782058, Final residual = 8.6033e-07, No Iterations 66
DILUPBiCGStab:  Solving for Y, Initial residual = 0.0818327, Final residual = 1.34297e-07, No Iterations 66
DILUPBiCGStab:  Solving for Y, Initial residual = 0.0782059, Final residual = 6.9275e-07, No Iterations 66
DILUPBiCGStab:  Solving for Y, Initial residual = 0.0818325, Final residual = 3.23888e-08, No Iterations 67
DILUPBiCGStab:  Solving for Y, Initial residual = 0.0782059, Final residual = 6.74136e-07, No Iterations 65
DILUPBiCGStab:  Solving for Y, Initial residual = 0.0818324, Final residual = 5.82833e-08, No Iterations 67
DILUPBiCGStab:  Solving for Y, Initial residual = 0.0782059, Final residual = 7.32636e-08, No Iterations 67
DILUPBiCGStab:  Solving for Y, Initial residual = 0.0818317, Final residual = 2.38338e-07, No Iterations 67
DILUPBiCGStab:  Solving for Y, Initial residual = 0.0782059, Final residual = 7.10212e-07, No Iterations 66
DILUPBiCGStab:  Solving for Y, Initial residual = 0.0818325, Final residual = 9.44975e-07, No Iterations 64
DILUPBiCGStab:  Solving for Y, Initial residual = 0.0782058, Final residual = 6.76792e-07, No Iterations 65
DILUPBiCGStab:  Solving for Y, Initial residual = 0.0818325, Final residual = 3.95463e-08, No Iterations 67
DILUPBiCGStab:  Solving for Y, Initial residual = 0.0782059, Final residual = 5.01461e-07, No Iterations 66
DILUPBiCGStab:  Solving for Y, Initial residual = 0.081831, Final residual = 5.33634e-08, No Iterations 67
DILUPBiCGStab:  Solving for Y, Initial residual = 0.0782058, Final residual = 9.4804e-07, No Iterations 64
DILUPBiCGStab:  Solving for Y, Initial residual = 0.0818327, Final residual = 3.35612e-07, No Iterations 66
DILUPBiCGStab:  Solving for Ux, Initial residual = 0.0103024, Final residual = 9.24033e-07, No Iterations 2
DILUPBiCGStab:  Solving for Uy, Initial residual = 0.00706655, Final residual = 5.54179e-07, No Iterations 2
DILUPBiCGStab:  Solving for T, Initial residual = 0.004004, Final residual = 1.64125e-07, No Iterations 2
DICPCG:  Solving for p_rgh, Initial residual = 0.0861619, Final residual = 0.000716624, No Iterations 54
time step continuity errors : sum local = 1.76715e-05, global = 1.23671e-07, cumulative = -2.62508e-06
ExecutionTime = 4.67 s  ClockTime = 4 s

Time = 9

DILUPBiCGStab:  Solving for Y, Initial residual = 0.078816, Final residual = 7.83054e-08, No Iterations 68
DILUPBiCGStab:  Solving for Y, Initial residual = 0.0819108, Final residual = 9.67489e-07, No Iterations 64
DILUPBiCGStab:  Solving for Y, Initial residual = 0.0782787, Final residual = 7.99372e-07, No Iterations 66
DILUPBiCGStab:  Solving for Y, Initial residual = 0.08191, Final residual = 9.7747e-07, No Iterations 65
DILUPBiCGStab:  Solving for Y, Initial residual = 0.0782788, Final residual = 3.23102e-07, No Iterations 66
DILUPBiCGStab:  Solving for Y, Initial residual = 0.0819106, Final residual = 2.36871e-07, No Iterations 66
DILUPBiCGStab:  Solving for Y, Initial residual = 0.0782786, Final residual = 9.69074e-07, No Iterations 66
DILUPBiCGStab:  Solving for Y, Initial residual = 0.0819098, Final residual = 9.36874e-07, No Iterations 67
DILUPBiCGStab:  Solving for Y, Initial residual = 0.0782787, Final residual = 4.50972e-07, No Iterations 66
DILUPBiCGStab:  Solving for Y, Initial residual = 0.0819104, Final residual = 9.98991e-07, No Iterations 65
DILUPBiCGStab:  Solving for Y, Initial residual = 0.0782788, Final residual = 2.93873e-07, No Iterations 65
DILUPBiCGStab:  Solving for Y, Initial residual = 0.0819113, Final residual = 4.36772e-08, No Iterations 67
DILUPBiCGStab:  Solving for Y, Initial residual = 0.0782787, Final residual = 2.80815e-07, No Iterations 66
DILUPBiCGStab:  Solving for Y, Initial residual = 0.0819113, Final residual = 7.76722e-07, No Iterations 65
DILUPBiCGStab:  Solving for Y, Initial residual = 0.0782787, Final residual = 9.2172e-07, No Iterations 64
DILUPBiCGStab:  Solving for Y, Initial residual = 0.0819112, Final residual = 8.4674e-08, No Iterations 66
DILUPBiCGStab:  Solving for Y, Initial residual = 0.0782786, Final residual = 4.29428e-07, No Iterations 66
DILUPBiCGStab:  Solving for Y, Initial residual = 0.0819104, Final residual = 5.11535e-07, No Iterations 67
DILUPBiCGStab:  Solving for Y, Initial residual = 0.0782787, Final residual = 8.07312e-07, No Iterations 64
DILUPBiCGStab:  Solving for Y, Initial residual = 0.0819116, Final residual = 9.11934e-07, No Iterations 67
DILUPBiCGStab:  Solving for Y, Initial residual = 0.0782788, Final residual = 7.42384e-08, No Iterations 67
DILUPBiCGStab:  Solving for Y, Initial residual = 0.0819111, Final residual = 4.27694e-08, No Iterations 67
DILUPBiCGStab:  Solving for Y, Initial residual = 0.0782787, Final residual = 9.61391e-07, No Iterations 65
DILUPBiCGStab:  Solving for Y, Initial residual = 0.0819122, Final residual = 3.02969e-08, No Iterations 67
DILUPBiCGStab:  Solving for Y, Initial residual = 0.0782787, Final residual = 2.54836e-07, No Iterations 66
DILUPBiCGStab:  Solving for Y, Initial residual = 0.0819113, Final residual = 8.45163e-08, No Iterations 67
DILUPBiCGStab:  Solving for Y, Initial residual = 0.0782787, Final residual = 9.58814e-07, No Iterations 65
DILUPBiCGStab:  Solving for Y, Initial residual = 0.0819122, Final residual = 2.47553e-07, No Iterations 66
DILUPBiCGStab:  Solving for Y, Initial residual = 0.0782787, Final residual = 9.80248e-07, No Iterations 66
DILUPBiCGStab:  Solving for Y, Initial residual = 0.0819098, Final residual = 3.67834e-07, No Iterations 67
DILUPBiCGStab:  Solving for Y, Initial residual = 0.0782787, Final residual = 3.52849e-07, No Iterations 66
DILUPBiCGStab:  Solving for Y, Initial residual = 0.0819114, Final residual = 7.63906e-08, No Iterations 67
DILUPBiCGStab:  Solving for Y, Initial residual = 0.0782787, Final residual = 7.55286e-07, No Iterations 66
DILUPBiCGStab:  Solving for Y, Initial residual = 0.08191, Final residual = 1.92503e-07, No Iterations 66
DILUPBiCGStab:  Solving for Y, Initial residual = 0.0782786, Final residual = 9.31817e-08, No Iterations 67
DILUPBiCGStab:  Solving for Y, Initial residual = 0.0819109, Final residual = 6.51606e-07, No Iterations 66
DILUPBiCGStab:  Solving for Y, Initial residual = 0.0782787, Final residual = 8.83792e-08, No Iterations 66
DILUPBiCGStab:  Solving for Y, Initial residual = 0.0819111, Final residual = 6.97723e-08, No Iterations 66
DILUPBiCGStab:  Solving for Y, Initial residual = 0.0782787, Final residual = 9.68313e-07, No Iterations 64
DILUPBiCGStab:  Solving for Y, Initial residual = 0.081912, Final residual = 8.32552e-08, No Iterations 66
DILUPBiCGStab:  Solving for Ux, Initial residual = 0.00951717, Final residual = 4.63733e-07, No Iterations 2
DILUPBiCGStab:  Solving for Uy, Initial residual = 0.00793634, Final residual = 6.69337e-07, No Iterations 2
DILUPBiCGStab:  Solving for T, Initial residual = 0.00344312, Final residual = 1.40239e-07, No Iterations 2
DICPCG:  Solving for p_rgh, Initial residual = 0.0633902, Final residual = 0.000608852, No Iterations 50
time step continuity errors : sum local = 1.45953e-05, global = -7.30143e-07, cumulative = -3.35522e-06
ExecutionTime = 5.24 s  ClockTime = 5 s

Time = 10

DILUPBiCGStab:  Solving for Y, Initial residual = 0.078846, Final residual = 6.2648e-08, No Iterations 67
DILUPBiCGStab:  Solving for Y, Initial residual = 0.0819839, Final residual = 4.57312e-08, No Iterations 67
DILUPBiCGStab:  Solving for Y, Initial residual = 0.0783459, Final residual = 3.94232e-07, No Iterations 66
DILUPBiCGStab:  Solving for Y, Initial residual = 0.0819845, Final residual = 4.72667e-07, No Iterations 66
DILUPBiCGStab:  Solving for Y, Initial residual = 0.0783457, Final residual = 9.88313e-08, No Iterations 67
DILUPBiCGStab:  Solving for Y, Initial residual = 0.0819842, Final residual = 5.47599e-08, No Iterations 67
DILUPBiCGStab:  Solving for Y, Initial residual = 0.0783457, Final residual = 2.61871e-07, No Iterations 66
DILUPBiCGStab:  Solving for Y, Initial residual = 0.0819844, Final residual = 8.01345e-07, No Iterations 65
DILUPBiCGStab:  Solving for Y, Initial residual = 0.0783458, Final residual = 8.57865e-07, No Iterations 66
DILUPBiCGStab:  Solving for Y, Initial residual = 0.0819829, Final residual = 9.42969e-07, No Iterations 66
DILUPBiCGStab:  Solving for Y, Initial residual = 0.0783458, Final residual = 4.08213e-07, No Iterations 66
DILUPBiCGStab:  Solving for Y, Initial residual = 0.0819846, Final residual = 9.97567e-07, No Iterations 65
DILUPBiCGStab:  Solving for Y, Initial residual = 0.0783458, Final residual = 7.62587e-07, No Iterations 66
DILUPBiCGStab:  Solving for Y, Initial residual = 0.081985, Final residual = 3.16026e-07, No Iterations 66
DILUPBiCGStab:  Solving for Y, Initial residual = 0.0783457, Final residual = 3.74052e-07, No Iterations 66
DILUPBiCGStab:  Solving for Y, Initial residual = 0.0819836, Final residual = 7.7603e-08, No Iterations 67
DILUPBiCGStab:  Solving for Y, Initial residual = 0.0783457, Final residual = 4.37304e-07, No Iterations 66
DILUPBiCGStab:  Solving for Y, Initial residual = 0.0819846, Final residual = 5.75799e-07, No Iterations 63
DILUPBiCGStab:  Solving for Y, Initial residual = 0.0783458, Final residual = 3.21182e-08, No Iterations 67
DILUPBiCGStab:  Solving for Y, Initial residual = 0.081984, Final residual = 5.3195e-07, No Iterations 66
DILUPBiCGStab:  Solving for Y, Initial residual = 0.0783457, Final residual = 5.51383e-08, No Iterations 66
DILUPBiCGStab:  Solving for Y, Initial residual = 0.081984, Final residual = 9.614e-07, No Iterations 66
DILUPBiCGStab:  Solving for Y, Initial residual = 0.0783456, Final residual = 1.49537e-07, No Iterations 66
DILUPBiCGStab:  Solving for Y, Initial residual = 0.0819839, Final residual = 7.51311e-07, No Iterations 66
DILUPBiCGStab:  Solving for Y, Initial residual = 0.0783457, Final residual = 8.6503e-07, No Iterations 64
DILUPBiCGStab:  Solving for Y, Initial residual = 0.0819838, Final residual = 2.23683e-07, No Iterations 67
DILUPBiCGStab:  Solving for Y, Initial residual = 0.0783457, Final residual = 7.25971e-08, No Iterations 67
DILUPBiCGStab:  Solving for Y, Initial residual = 0.0819841, Final residual = 7.98511e-07, No Iterations 66
DILUPBiCGStab:  Solving for Y, Initial residual = 0.0783458, Final residual = 8.63498e-07, No Iterations 64
DILUPBiCGStab:  Solving for Y, Initial residual = 0.0819851, Final residual = 3.12299e-08, No Iterations 67
DILUPBiCGStab:  Solving for Y, Initial residual = 0.0783458, Final residual = 1.79529e-07, No Iterations 66
DILUPBiCGStab:  Solving for Y, Initial residual = 0.0819838, Final residual = 7.77365e-07, No Iterations 66
DILUPBiCGStab:  Solving for Y, Initial residual = 0.0783457, Final residual = 5.60612e-07, No Iterations 66
DILUPBiCGStab:  Solving for Y, Initial residual = 0.0819833, Final residual = 3.65936e-08, No Iterations 67
DILUPBiCGStab:  Solving for Y, Initial residual = 0.0783457, Final residual = 7.30981e-08, No Iterations 67
DILUPBiCGStab:  Solving for Y, Initial residual = 0.0819841, Final residual = 4.284e-07, No Iterations 66
DILUPBiCGStab:  Solving for Y, Initial residual = 0.0783457, Final residual = 6.43108e-08, No Iterations 67
DILUPBiCGStab:  Solving for Y, Initial residual = 0.081984, Final residual = 6.65554e-07, No Iterations 64
DILUPBiCGStab:  Solving for Y, Initial residual = 0.0783457, Final residual = 7.80634e-07, No Iterations 64
DILUPBiCGStab:  Solving for Y, Initial residual = 0.0819842, Final residual = 8.56767e-08, No Iterations 67
DILUPBiCGStab:  Solving for Ux, Initial residual = 0.00764924, Final residual = 8.46937e-07, No Iterations 2
DILUPBiCGStab:  Solving for Uy, Initial residual = 0.00633749, Final residual = 5.58405e-07, No Iterations 2
DILUPBiCGStab:  Solving for T, Initial residual = 0.00300928, Final residual = 1.21206e-07, No Iterations 2
DICPCG:  Solving for p_rgh, Initial residual = 0.0499555, Final residual = 0.000475336, No Iterations 54
time step continuity errors : sum local = 1.05019e-05, global = 8.31318e-08, cumulative = -3.27209e-06
ExecutionTime = 5.84 s  ClockTime = 6 s

Time = 11

DILUPBiCGStab:  Solving for Y, Initial residual = 0.0788644, Final residual = 8.20742e-08, No Iterations 67
DILUPBiCGStab:  Solving for Y, Initial residual = 0.0820173, Final residual = 7.43599e-07, No Iterations 66
DILUPBiCGStab:  Solving for Y, Initial residual = 0.0783768, Final residual = 5.62059e-07, No Iterations 65
DILUPBiCGStab:  Solving for Y, Initial residual = 0.0820168, Final residual = 7.04271e-07, No Iterations 64
DILUPBiCGStab:  Solving for Y, Initial residual = 0.0783767, Final residual = 9.29319e-07, No Iterations 64
DILUPBiCGStab:  Solving for Y, Initial residual = 0.0820185, Final residual = 4.7817e-07, No Iterations 65
DILUPBiCGStab:  Solving for Y, Initial residual = 0.0783768, Final residual = 4.28203e-08, No Iterations 67
DILUPBiCGStab:  Solving for Y, Initial residual = 0.0820175, Final residual = 3.6818e-07, No Iterations 65
DILUPBiCGStab:  Solving for Y, Initial residual = 0.0783768, Final residual = 8.66764e-07, No Iterations 66
DILUPBiCGStab:  Solving for Y, Initial residual = 0.0820164, Final residual = 6.84352e-08, No Iterations 67
DILUPBiCGStab:  Solving for Y, Initial residual = 0.0783767, Final residual = 5.74475e-07, No Iterations 65
DILUPBiCGStab:  Solving for Y, Initial residual = 0.0820182, Final residual = 4.50223e-08, No Iterations 67
DILUPBiCGStab:  Solving for Y, Initial residual = 0.0783767, Final residual = 6.71175e-07, No Iterations 65
DILUPBiCGStab:  Solving for Y, Initial residual = 0.0820183, Final residual = 4.44649e-07, No Iterations 66
DILUPBiCGStab:  Solving for Y, Initial residual = 0.0783767, Final residual = 9.78761e-07, No Iterations 65
DILUPBiCGStab:  Solving for Y, Initial residual = 0.0820187, Final residual = 9.64976e-07, No Iterations 64
DILUPBiCGStab:  Solving for Y, Initial residual = 0.0783767, Final residual = 4.85389e-07, No Iterations 66
DILUPBiCGStab:  Solving for Y, Initial residual = 0.0820169, Final residual = 4.17484e-07, No Iterations 66
DILUPBiCGStab:  Solving for Y, Initial residual = 0.0783767, Final residual = 9.91983e-07, No Iterations 66
DILUPBiCGStab:  Solving for Y, Initial residual = 0.0820162, Final residual = 4.9051e-07, No Iterations 66
DILUPBiCGStab:  Solving for Y, Initial residual = 0.0783767, Final residual = 9.97812e-07, No Iterations 66
DILUPBiCGStab:  Solving for Y, Initial residual = 0.0820162, Final residual = 3.05029e-07, No Iterations 66
DILUPBiCGStab:  Solving for Y, Initial residual = 0.0783767, Final residual = 3.64392e-08, No Iterations 67
DILUPBiCGStab:  Solving for Y, Initial residual = 0.0820175, Final residual = 2.45591e-07, No Iterations 66
DILUPBiCGStab:  Solving for Y, Initial residual = 0.0783768, Final residual = 4.7965e-07, No Iterations 66
DILUPBiCGStab:  Solving for Y, Initial residual = 0.0820169, Final residual = 7.07665e-07, No Iterations 65
DILUPBiCGStab:  Solving for Y, Initial residual = 0.0783768, Final residual = 2.48826e-07, No Iterations 66
DILUPBiCGStab:  Solving for Y, Initial residual = 0.0820172, Final residual = 6.19253e-07, No Iterations 64
DILUPBiCGStab:  Solving for Y, Initial residual = 0.0783767, Final residual = 3.46561e-07, No Iterations 66
DILUPBiCGStab:  Solving for Y, Initial residual = 0.0820179, Final residual = 3.26531e-07, No Iterations 66
DILUPBiCGStab:  Solving for Y, Initial residual = 0.0783768, Final residual = 5.88144e-07, No Iterations 65
DILUPBiCGStab:  Solving for Y, Initial residual = 0.0820182, Final residual = 9.97499e-07, No Iterations 66
DILUPBiCGStab:  Solving for Y, Initial residual = 0.0783766, Final residual = 9.69294e-07, No Iterations 67
DILUPBiCGStab:  Solving for Y, Initial residual = 0.0820186, Final residual = 8.1477e-07, No Iterations 66
DILUPBiCGStab:  Solving for Y, Initial residual = 0.0783768, Final residual = 5.44325e-08, No Iterations 67
DILUPBiCGStab:  Solving for Y, Initial residual = 0.0820174, Final residual = 8.29919e-07, No Iterations 66
DILUPBiCGStab:  Solving for Y, Initial residual = 0.0783766, Final residual = 6.4081e-07, No Iterations 65
DILUPBiCGStab:  Solving for Y, Initial residual = 0.0820183, Final residual = 1.51815e-07, No Iterations 67
DILUPBiCGStab:  Solving for Y, Initial residual = 0.0783768, Final residual = 7.86712e-07, No Iterations 65
DILUPBiCGStab:  Solving for Y, Initial residual = 0.0820184, Final residual = 5.33453e-08, No Iterations 67
DILUPBiCGStab:  Solving for Ux, Initial residual = 0.00688918, Final residual = 3.75257e-07, No Iterations 2
DILUPBiCGStab:  Solving for Uy, Initial residual = 0.0051508, Final residual = 3.60385e-07, No Iterations 2
DILUPBiCGStab:  Solving for T, Initial residual = 0.00266483, Final residual = 1.06464e-07, No Iterations 2
DICPCG:  Solving for p_rgh, Initial residual = 0.0375563, Final residual = 0.000342269, No Iterations 28
time step continuity errors : sum local = 7.08647e-06, global = -6.30277e-07, cumulative = -3.90236e-06
ExecutionTime = 6.41 s  ClockTime = 6 s

Time = 12

DILUPBiCGStab:  Solving for Y, Initial residual = 0.078863, Final residual = 6.52628e-07, No Iterations 65
DILUPBiCGStab:  Solving for Y, Initial residual = 0.0820325, Final residual = 8.68509e-07, No Iterations 65
DILUPBiCGStab:  Solving for Y, Initial residual = 0.0783914, Final residual = 9.32529e-07, No Iterations 66
DILUPBiCGStab:  Solving for Y, Initial residual = 0.0820338, Final residual = 8.53534e-07, No Iterations 67
DILUPBiCGStab:  Solving for Y, Initial residual = 0.0783912, Final residual = 6.91095e-07, No Iterations 66
DILUPBiCGStab:  Solving for Y, Initial residual = 0.0820335, Final residual = 7.46506e-08, No Iterations 67
DILUPBiCGStab:  Solving for Y, Initial residual = 0.0783911, Final residual = 1.72619e-07, No Iterations 65
DILUPBiCGStab:  Solving for Y, Initial residual = 0.0820326, Final residual = 5.43655e-07, No Iterations 66
DILUPBiCGStab:  Solving for Y, Initial residual = 0.0783912, Final residual = 7.1171e-08, No Iterations 67
DILUPBiCGStab:  Solving for Y, Initial residual = 0.0820327, Final residual = 1.2283e-07, No Iterations 67
DILUPBiCGStab:  Solving for Y, Initial residual = 0.0783911, Final residual = 5.33589e-08, No Iterations 67
DILUPBiCGStab:  Solving for Y, Initial residual = 0.0820326, Final residual = 1.66399e-07, No Iterations 67
DILUPBiCGStab:  Solving for Y, Initial residual = 0.0783911, Final residual = 5.25378e-07, No Iterations 65
DILUPBiCGStab:  Solving for Y, Initial residual = 0.0820333, Final residual = 1.00208e-07, No Iterations 66
DILUPBiCGStab:  Solving for Y, Initial residual = 0.0783911, Final residual = 8.50905e-07, No Iterations 66
DILUPBiCGStab:  Solving for Y, Initial residual = 0.0820316, Final residual = 4.20355e-08, No Iterations 67
DILUPBiCGStab:  Solving for Y, Initial residual = 0.0783911, Final residual = 8.912e-07, No Iterations 65
DILUPBiCGStab:  Solving for Y, Initial residual = 0.0820337, Final residual = 9.52711e-07, No Iterations 65
DILUPBiCGStab:  Solving for Y, Initial residual = 0.0783912, Final residual = 3.09784e-07, No Iterations 66
DILUPBiCGStab:  Solving for Y, Initial residual = 0.0820323, Final residual = 9.24945e-07, No Iterations 64
DILUPBiCGStab:  Solving for Y, Initial residual = 0.078391, Final residual = 3.63465e-08, No Iterations 67
DILUPBiCGStab:  Solving for Y, Initial residual = 0.0820327, Final residual = 3.73902e-07, No Iterations 66
DILUPBiCGStab:  Solving for Y, Initial residual = 0.0783911, Final residual = 2.06822e-07, No Iterations 66
DILUPBiCGStab:  Solving for Y, Initial residual = 0.0820324, Final residual = 9.08649e-08, No Iterations 67
DILUPBiCGStab:  Solving for Y, Initial residual = 0.0783911, Final residual = 9.09539e-07, No Iterations 64
DILUPBiCGStab:  Solving for Y, Initial residual = 0.0820338, Final residual = 7.37759e-08, No Iterations 67
DILUPBiCGStab:  Solving for Y, Initial residual = 0.0783911, Final residual = 2.89584e-07, No Iterations 66
DILUPBiCGStab:  Solving for Y, Initial residual = 0.0820323, Final residual = 9.28656e-07, No Iterations 65
DILUPBiCGStab:  Solving for Y, Initial residual = 0.0783912, Final residual = 1.04537e-07, No Iterations 66
DILUPBiCGStab:  Solving for Y, Initial residual = 0.0820326, Final residual = 4.19233e-07, No Iterations 66
DILUPBiCGStab:  Solving for Y, Initial residual = 0.0783911, Final residual = 6.1e-07, No Iterations 66
DILUPBiCGStab:  Solving for Y, Initial residual = 0.0820319, Final residual = 6.67632e-08, No Iterations 66
DILUPBiCGStab:  Solving for Y, Initial residual = 0.0783911, Final residual = 6.97872e-07, No Iterations 66
DILUPBiCGStab:  Solving for Y, Initial residual = 0.0820318, Final residual = 8.87135e-07, No Iterations 64
DILUPBiCGStab:  Solving for Y, Initial residual = 0.078391, Final residual = 9.77751e-07, No Iterations 66
DILUPBiCGStab:  Solving for Y, Initial residual = 0.0820314, Final residual = 2.08212e-07, No Iterations 66
DILUPBiCGStab:  Solving for Y, Initial residual = 0.0783911, Final residual = 1.14088e-07, No Iterations 67
DILUPBiCGStab:  Solving for Y, Initial residual = 0.0820325, Final residual = 9.76424e-07, No Iterations 65
DILUPBiCGStab:  Solving for Y, Initial residual = 0.078391, Final residual = 1.7167e-07, No Iterations 66
DILUPBiCGStab:  Solving for Y, Initial residual = 0.0820329, Final residual = 5.11876e-07, No Iterations 66
DILUPBiCGStab:  Solving for Ux, Initial residual = 0.00683279, Final residual = 4.51445e-07, No Iterations 2
DILUPBiCGStab:  Solving for Uy, Initial residual = 0.00472877, Final residual = 3.32364e-07, No Iterations 2
DILUPBiCGStab:  Solving for T, Initial residual = 0.00238543, Final residual = 9.51757e-08, No Iterations 2
DICPCG:  Solving for p_rgh, Initial residual = 0.0295174, Final residual = 0.000292192, No Iterations 36
time step continuity errors : sum local = 6.04768e-06, global = 1.47287e-06, cumulative = -2.4295e-06
ExecutionTime = 7.05 s  ClockTime = 7 s

Time = 13

DILUPBiCGStab:  Solving for Y, Initial residual = 0.0788562, Final residual = 1.64759e-07, No Iterations 67
DILUPBiCGStab:  Solving for Y, Initial residual = 0.0820338, Final residual = 9.07368e-07, No Iterations 64
DILUPBiCGStab:  Solving for Y, Initial residual = 0.078393, Final residual = 3.59048e-08, No Iterations 67
DILUPBiCGStab:  Solving for Y, Initial residual = 0.0820341, Final residual = 5.23969e-08, No Iterations 67
DILUPBiCGStab:  Solving for Y, Initial residual = 0.0783929, Final residual = 7.60474e-07, No Iterations 66
DILUPBiCGStab:  Solving for Y, Initial residual = 0.082035, Final residual = 9.03578e-07, No Iterations 64
DILUPBiCGStab:  Solving for Y, Initial residual = 0.0783928, Final residual = 2.55539e-07, No Iterations 66
DILUPBiCGStab:  Solving for Y, Initial residual = 0.0820338, Final residual = 6.95493e-07, No Iterations 66
DILUPBiCGStab:  Solving for Y, Initial residual = 0.0783928, Final residual = 5.24929e-07, No Iterations 65
DILUPBiCGStab:  Solving for Y, Initial residual = 0.0820347, Final residual = 3.84279e-08, No Iterations 67
DILUPBiCGStab:  Solving for Y, Initial residual = 0.0783929, Final residual = 4.72468e-07, No Iterations 66
DILUPBiCGStab:  Solving for Y, Initial residual = 0.0820335, Final residual = 9.36658e-07, No Iterations 65
DILUPBiCGStab:  Solving for Y, Initial residual = 0.078393, Final residual = 8.14556e-08, No Iterations 67
DILUPBiCGStab:  Solving for Y, Initial residual = 0.0820342, Final residual = 3.28531e-07, No Iterations 66
DILUPBiCGStab:  Solving for Y, Initial residual = 0.0783929, Final residual = 3.68532e-07, No Iterations 66
DILUPBiCGStab:  Solving for Y, Initial residual = 0.0820336, Final residual = 2.51646e-07, No Iterations 66
DILUPBiCGStab:  Solving for Y, Initial residual = 0.0783929, Final residual = 8.17715e-07, No Iterations 66
DILUPBiCGStab:  Solving for Y, Initial residual = 0.082033, Final residual = 5.97905e-08, No Iterations 67
DILUPBiCGStab:  Solving for Y, Initial residual = 0.0783929, Final residual = 3.49467e-08, No Iterations 67
DILUPBiCGStab:  Solving for Y, Initial residual = 0.0820341, Final residual = 4.98646e-07, No Iterations 66
DILUPBiCGStab:  Solving for Y, Initial residual = 0.0783929, Final residual = 4.23547e-07, No Iterations 66
DILUPBiCGStab:  Solving for Y, Initial residual = 0.0820346, Final residual = 4.65194e-08, No Iterations 67
DILUPBiCGStab:  Solving for Y, Initial residual = 0.0783929, Final residual = 7.12336e-07, No Iterations 65
DILUPBiCGStab:  Solving for Y, Initial residual = 0.0820332, Final residual = 5.21641e-07, No Iterations 65
DILUPBiCGStab:  Solving for Y, Initial residual = 0.0783929, Final residual = 6.62192e-08, No Iterations 66
DILUPBiCGStab:  Solving for Y, Initial residual = 0.0820341, Final residual = 3.28515e-08, No Iterations 68
DILUPBiCGStab:  Solving for Y, Initial residual = 0.0783929, Final residual = 7.59118e-07, No Iterations 66
DILUPBiCGStab:  Solving for Y, Initial residual = 0.0820331, Final residual = 3.22724e-07, No Iterations 65
DILUPBiCGStab:  Solving for Y, Initial residual = 0.0783929, Final residual = 2.73287e-08, No Iterations 69
DILUPBiCGStab:  Solving for Y, Initial residual = 0.0820341, Final residual = 2.78772e-07, No Iterations 65
DILUPBiCGStab:  Solving for Y, Initial residual = 0.0783929, Final residual = 6.99635e-08, No Iterations 66
DILUPBiCGStab:  Solving for Y, Initial residual = 0.0820341, Final residual = 8.3197e-07, No Iterations 66
DILUPBiCGStab:  Solving for Y, Initial residual = 0.078393, Final residual = 1.87877e-07, No Iterations 66
DILUPBiCGStab:  Solving for Y, Initial residual = 0.0820343, Final residual = 2.47429e-07, No Iterations 66
DILUPBiCGStab:  Solving for Y, Initial residual = 0.0783929, Final residual = 2.56012e-07, No Iterations 66
DILUPBiCGStab:  Solving for Y, Initial residual = 0.0820344, Final residual = 5.97855e-07, No Iterations 66
DILUPBiCGStab:  Solving for Y, Initial residual = 0.078393, Final residual = 1.53764e-07, No Iterations 66
DILUPBiCGStab:  Solving for Y, Initial residual = 0.0820339, Final residual = 3.7472e-07, No Iterations 65
DILUPBiCGStab:  Solving for Y, Initial residual = 0.0783929, Final residual = 7.42935e-08, No Iterations 66
DILUPBiCGStab:  Solving for Y, Initial residual = 0.0820341, Final residual = 3.37516e-07, No Iterations 67
DILUPBiCGStab:  Solving for Ux, Initial residual = 0.00656423, Final residual = 4.39986e-07, No Iterations 2
DILUPBiCGStab:  Solving for Uy, Initial residual = 0.00432937, Final residual = 3.00282e-07, No Iterations 2
DILUPBiCGStab:  Solving for T, Initial residual = 0.00215472, Final residual = 8.62054e-08, No Iterations 2
DICPCG:  Solving for p_rgh, Initial residual = 0.0241955, Final residual = 0.000212059, No Iterations 46
time step continuity errors : sum local = 4.38297e-06, global = -9.3789e-09, cumulative = -2.43888e-06
ExecutionTime = 7.64 s  ClockTime = 7 s

Time = 14

DILUPBiCGStab:  Solving for Y, Initial residual = 0.0788329, Final residual = 1.0386e-07, No Iterations 67
DILUPBiCGStab:  Solving for Y, Initial residual = 0.0820186, Final residual = 5.59361e-08, No Iterations 66
DILUPBiCGStab:  Solving for Y, Initial residual = 0.0783796, Final residual = 7.6502e-08, No Iterations 66
DILUPBiCGStab:  Solving for Y, Initial residual = 0.0820187, Final residual = 6.02343e-07, No Iterations 66
DILUPBiCGStab:  Solving for Y, Initial residual = 0.0783796, Final residual = 7.28086e-08, No Iterations 67
DILUPBiCGStab:  Solving for Y, Initial residual = 0.0820188, Final residual = 8.34597e-07, No Iterations 66
DILUPBiCGStab:  Solving for Y, Initial residual = 0.0783796, Final residual = 5.49973e-07, No Iterations 66
DILUPBiCGStab:  Solving for Y, Initial residual = 0.0820194, Final residual = 6.89902e-08, No Iterations 67
DILUPBiCGStab:  Solving for Y, Initial residual = 0.0783795, Final residual = 6.07088e-07, No Iterations 66
DILUPBiCGStab:  Solving for Y, Initial residual = 0.0820195, Final residual = 1.12214e-07, No Iterations 67
DILUPBiCGStab:  Solving for Y, Initial residual = 0.0783795, Final residual = 7.21761e-07, No Iterations 66
DILUPBiCGStab:  Solving for Y, Initial residual = 0.0820197, Final residual = 7.67453e-07, No Iterations 66
DILUPBiCGStab:  Solving for Y, Initial residual = 0.0783796, Final residual = 9.78546e-07, No Iterations 66
DILUPBiCGStab:  Solving for Y, Initial residual = 0.0820175, Final residual = 9.11222e-08, No Iterations 67
DILUPBiCGStab:  Solving for Y, Initial residual = 0.0783795, Final residual = 4.32745e-08, No Iterations 67
DILUPBiCGStab:  Solving for Y, Initial residual = 0.0820188, Final residual = 2.31551e-07, No Iterations 67
DILUPBiCGStab:  Solving for Y, Initial residual = 0.0783795, Final residual = 2.33179e-07, No Iterations 66
DILUPBiCGStab:  Solving for Y, Initial residual = 0.082019, Final residual = 3.22903e-07, No Iterations 66
DILUPBiCGStab:  Solving for Y, Initial residual = 0.0783795, Final residual = 8.31401e-07, No Iterations 65
DILUPBiCGStab:  Solving for Y, Initial residual = 0.0820197, Final residual = 3.14359e-07, No Iterations 66
DILUPBiCGStab:  Solving for Y, Initial residual = 0.0783796, Final residual = 9.74414e-07, No Iterations 65
DILUPBiCGStab:  Solving for Y, Initial residual = 0.08202, Final residual = 9.06209e-07, No Iterations 65
DILUPBiCGStab:  Solving for Y, Initial residual = 0.0783796, Final residual = 9.05928e-07, No Iterations 66
DILUPBiCGStab:  Solving for Y, Initial residual = 0.0820199, Final residual = 7.98197e-07, No Iterations 66
DILUPBiCGStab:  Solving for Y, Initial residual = 0.0783796, Final residual = 3.92331e-08, No Iterations 67
DILUPBiCGStab:  Solving for Y, Initial residual = 0.0820188, Final residual = 8.93973e-07, No Iterations 64
DILUPBiCGStab:  Solving for Y, Initial residual = 0.0783794, Final residual = 6.43489e-07, No Iterations 66
DILUPBiCGStab:  Solving for Y, Initial residual = 0.0820196, Final residual = 1.65074e-07, No Iterations 65
DILUPBiCGStab:  Solving for Y, Initial residual = 0.0783795, Final residual = 7.5343e-07, No Iterations 64
DILUPBiCGStab:  Solving for Y, Initial residual = 0.0820189, Final residual = 8.01099e-08, No Iterations 66
DILUPBiCGStab:  Solving for Y, Initial residual = 0.0783795, Final residual = 4.07345e-08, No Iterations 67
DILUPBiCGStab:  Solving for Y, Initial residual = 0.0820188, Final residual = 3.83636e-08, No Iterations 67
DILUPBiCGStab:  Solving for Y, Initial residual = 0.0783795, Final residual = 9.0976e-08, No Iterations 67
DILUPBiCGStab:  Solving for Y, Initial residual = 0.0820189, Final residual = 7.21073e-08, No Iterations 67
DILUPBiCGStab:  Solving for Y, Initial residual = 0.0783795, Final residual = 2.06989e-07, No Iterations 66
DILUPBiCGStab:  Solving for Y, Initial residual = 0.082019, Final residual = 3.96496e-07, No Iterations 65
DILUPBiCGStab:  Solving for Y, Initial residual = 0.0783794, Final residual = 5.55351e-08, No Iterations 66
DILUPBiCGStab:  Solving for Y, Initial residual = 0.0820188, Final residual = 3.46757e-08, No Iterations 68
DILUPBiCGStab:  Solving for Y, Initial residual = 0.0783795, Final residual = 7.52609e-07, No Iterations 65
DILUPBiCGStab:  Solving for Y, Initial residual = 0.0820197, Final residual = 7.7099e-07, No Iterations 64
DILUPBiCGStab:  Solving for Ux, Initial residual = 0.00638186, Final residual = 3.95961e-07, No Iterations 2
DILUPBiCGStab:  Solving for Uy, Initial residual = 0.00424522, Final residual = 2.90616e-07, No Iterations 2
DILUPBiCGStab:  Solving for T, Initial residual = 0.00196152, Final residual = 7.94016e-08, No Iterations 2
DICPCG:  Solving for p_rgh, Initial residual = 0.0207194, Final residual = 0.00019548, No Iterations 24
time step continuity errors : sum local = 4.05598e-06, global = -1.98114e-07, cumulative = -2.63699e-06
ExecutionTime = 8.22 s  ClockTime = 8 s

Time = 15

DILUPBiCGStab:  Solving for Y, Initial residual = 0.0788004, Final residual = 6.49328e-08, No Iterations 67
DILUPBiCGStab:  Solving for Y, Initial residual = 0.081984, Final residual = 9.92403e-07, No Iterations 66
DILUPBiCGStab:  Solving for Y, Initial residual = 0.0783487, Final residual = 2.95848e-07, No Iterations 66
DILUPBiCGStab:  Solving for Y, Initial residual = 0.0819837, Final residual = 6.43431e-07, No Iterations 66
DILUPBiCGStab:  Solving for Y, Initial residual = 0.0783484, Final residual = 9.80565e-07, No Iterations 66
DILUPBiCGStab:  Solving for Y, Initial residual = 0.0819828, Final residual = 5.98905e-08, No Iterations 67
DILUPBiCGStab:  Solving for Y, Initial residual = 0.0783484, Final residual = 2.69396e-07, No Iterations 67
DILUPBiCGStab:  Solving for Y, Initial residual = 0.0819844, Final residual = 5.70696e-07, No Iterations 65
DILUPBiCGStab:  Solving for Y, Initial residual = 0.0783484, Final residual = 5.59566e-07, No Iterations 65
DILUPBiCGStab:  Solving for Y, Initial residual = 0.0819834, Final residual = 1.52615e-07, No Iterations 67
DILUPBiCGStab:  Solving for Y, Initial residual = 0.0783484, Final residual = 1.96592e-07, No Iterations 66
DILUPBiCGStab:  Solving for Y, Initial residual = 0.0819843, Final residual = 6.95827e-07, No Iterations 67
DILUPBiCGStab:  Solving for Y, Initial residual = 0.0783485, Final residual = 6.81494e-08, No Iterations 67
DILUPBiCGStab:  Solving for Y, Initial residual = 0.0819841, Final residual = 6.62588e-07, No Iterations 65
DILUPBiCGStab:  Solving for Y, Initial residual = 0.0783485, Final residual = 4.25854e-07, No Iterations 66
DILUPBiCGStab:  Solving for Y, Initial residual = 0.0819846, Final residual = 7.81948e-08, No Iterations 67
DILUPBiCGStab:  Solving for Y, Initial residual = 0.0783485, Final residual = 3.12732e-07, No Iterations 66
DILUPBiCGStab:  Solving for Y, Initial residual = 0.0819837, Final residual = 5.81712e-08, No Iterations 67
DILUPBiCGStab:  Solving for Y, Initial residual = 0.0783484, Final residual = 9.76127e-07, No Iterations 65
DILUPBiCGStab:  Solving for Y, Initial residual = 0.0819853, Final residual = 2.55207e-07, No Iterations 67
DILUPBiCGStab:  Solving for Y, Initial residual = 0.0783485, Final residual = 4.85484e-07, No Iterations 65
DILUPBiCGStab:  Solving for Y, Initial residual = 0.0819843, Final residual = 4.64132e-08, No Iterations 67
DILUPBiCGStab:  Solving for Y, Initial residual = 0.0783484, Final residual = 9.48736e-07, No Iterations 65
DILUPBiCGStab:  Solving for Y, Initial residual = 0.0819852, Final residual = 6.14686e-07, No Iterations 66
DILUPBiCGStab:  Solving for Y, Initial residual = 0.0783484, Final residual = 5.37681e-08, No Iterations 67
DILUPBiCGStab:  Solving for Y, Initial residual = 0.0819841, Final residual = 5.64212e-08, No Iterations 67
DILUPBiCGStab:  Solving for Y, Initial residual = 0.0783484, Final residual = 6.97391e-08, No Iterations 67
DILUPBiCGStab:  Solving for Y, Initial residual = 0.081984, Final residual = 2.74533e-07, No Iterations 66
DILUPBiCGStab:  Solving for Y, Initial residual = 0.0783484, Final residual = 7.11799e-07, No Iterations 66
DILUPBiCGStab:  Solving for Y, Initial residual = 0.0819849, Final residual = 2.67755e-07, No Iterations 66
DILUPBiCGStab:  Solving for Y, Initial residual = 0.0783484, Final residual = 3.87916e-08, No Iterations 67
DILUPBiCGStab:  Solving for Y, Initial residual = 0.0819841, Final residual = 1.60946e-07, No Iterations 67
DILUPBiCGStab:  Solving for Y, Initial residual = 0.0783484, Final residual = 6.63992e-07, No Iterations 65
DILUPBiCGStab:  Solving for Y, Initial residual = 0.0819848, Final residual = 9.28025e-07, No Iterations 66
DILUPBiCGStab:  Solving for Y, Initial residual = 0.0783485, Final residual = 6.72064e-07, No Iterations 66
DILUPBiCGStab:  Solving for Y, Initial residual = 0.0819832, Final residual = 5.05228e-07, No Iterations 66
DILUPBiCGStab:  Solving for Y, Initial residual = 0.0783484, Final residual = 8.16667e-07, No Iterations 66
DILUPBiCGStab:  Solving for Y, Initial residual = 0.0819851, Final residual = 7.60939e-08, No Iterations 67
DILUPBiCGStab:  Solving for Y, Initial residual = 0.0783484, Final residual = 4.14588e-07, No Iterations 66
DILUPBiCGStab:  Solving for Y, Initial residual = 0.0819846, Final residual = 9.29287e-07, No Iterations 66
DILUPBiCGStab:  Solving for Ux, Initial residual = 0.00618335, Final residual = 3.70351e-07, No Iterations 2
DILUPBiCGStab:  Solving for Uy, Initial residual = 0.00413994, Final residual = 2.85811e-07, No Iterations 2
DILUPBiCGStab:  Solving for T, Initial residual = 0.00179773, Final residual = 9.97509e-07, No Iterations 2
DICPCG:  Solving for p_rgh, Initial residual = 0.0182698, Final residual = 0.000171668, No Iterations 43
time step continuity errors : sum local = 3.52552e-06, global = 5.10925e-08, cumulative = -2.5859e-06
ExecutionTime = 8.8 s  ClockTime = 9 s

Time = 16

DILUPBiCGStab:  Solving for Y, Initial residual = 0.0787498, Final residual = 9.21538e-07, No Iterations 66
DILUPBiCGStab:  Solving for Y, Initial residual = 0.0819356, Final residual = 4.90383e-07, No Iterations 66
DILUPBiCGStab:  Solving for Y, Initial residual = 0.0783041, Final residual = 4.39155e-07, No Iterations 66
DILUPBiCGStab:  Solving for Y, Initial residual = 0.0819352, Final residual = 2.34403e-07, No Iterations 66
DILUPBiCGStab:  Solving for Y, Initial residual = 0.078304, Final residual = 2.38062e-07, No Iterations 66
DILUPBiCGStab:  Solving for Y, Initial residual = 0.0819343, Final residual = 9.62789e-07, No Iterations 66
DILUPBiCGStab:  Solving for Y, Initial residual = 0.0783039, Final residual = 3.81837e-07, No Iterations 66
DILUPBiCGStab:  Solving for Y, Initial residual = 0.0819341, Final residual = 2.49574e-07, No Iterations 66
DILUPBiCGStab:  Solving for Y, Initial residual = 0.0783039, Final residual = 3.50969e-07, No Iterations 66
DILUPBiCGStab:  Solving for Y, Initial residual = 0.0819342, Final residual = 4.37544e-07, No Iterations 66
DILUPBiCGStab:  Solving for Y, Initial residual = 0.0783039, Final residual = 2.62108e-07, No Iterations 66
DILUPBiCGStab:  Solving for Y, Initial residual = 0.0819343, Final residual = 5.98139e-07, No Iterations 66
DILUPBiCGStab:  Solving for Y, Initial residual = 0.0783039, Final residual = 1.02276e-07, No Iterations 66
DILUPBiCGStab:  Solving for Y, Initial residual = 0.0819345, Final residual = 7.98749e-07, No Iterations 64
DILUPBiCGStab:  Solving for Y, Initial residual = 0.0783039, Final residual = 1.74356e-07, No Iterations 66
DILUPBiCGStab:  Solving for Y, Initial residual = 0.0819348, Final residual = 6.02744e-07, No Iterations 65
DILUPBiCGStab:  Solving for Y, Initial residual = 0.078304, Final residual = 7.15201e-08, No Iterations 67
DILUPBiCGStab:  Solving for Y, Initial residual = 0.0819347, Final residual = 3.08498e-07, No Iterations 66
DILUPBiCGStab:  Solving for Y, Initial residual = 0.078304, Final residual = 9.57334e-07, No Iterations 64
DILUPBiCGStab:  Solving for Y, Initial residual = 0.0819357, Final residual = 3.50326e-07, No Iterations 66
DILUPBiCGStab:  Solving for Y, Initial residual = 0.078304, Final residual = 1.18817e-07, No Iterations 66
DILUPBiCGStab:  Solving for Y, Initial residual = 0.0819345, Final residual = 3.45909e-07, No Iterations 66
DILUPBiCGStab:  Solving for Y, Initial residual = 0.0783039, Final residual = 7.53124e-07, No Iterations 64
DILUPBiCGStab:  Solving for Y, Initial residual = 0.0819356, Final residual = 3.61206e-07, No Iterations 65
DILUPBiCGStab:  Solving for Y, Initial residual = 0.078304, Final residual = 2.901e-07, No Iterations 66
DILUPBiCGStab:  Solving for Y, Initial residual = 0.0819343, Final residual = 4.25036e-08, No Iterations 68
DILUPBiCGStab:  Solving for Y, Initial residual = 0.0783039, Final residual = 4.28327e-07, No Iterations 66
DILUPBiCGStab:  Solving for Y, Initial residual = 0.0819341, Final residual = 4.16213e-07, No Iterations 66
DILUPBiCGStab:  Solving for Y, Initial residual = 0.0783039, Final residual = 6.72768e-07, No Iterations 63
DILUPBiCGStab:  Solving for Y, Initial residual = 0.0819355, Final residual = 3.06187e-07, No Iterations 66
DILUPBiCGStab:  Solving for Y, Initial residual = 0.0783039, Final residual = 7.45368e-08, No Iterations 67
DILUPBiCGStab:  Solving for Y, Initial residual = 0.0819347, Final residual = 4.21059e-07, No Iterations 66
DILUPBiCGStab:  Solving for Y, Initial residual = 0.0783039, Final residual = 9.60074e-07, No Iterations 65
DILUPBiCGStab:  Solving for Y, Initial residual = 0.0819358, Final residual = 1.05273e-07, No Iterations 67
DILUPBiCGStab:  Solving for Y, Initial residual = 0.078304, Final residual = 3.79859e-08, No Iterations 67
DILUPBiCGStab:  Solving for Y, Initial residual = 0.0819346, Final residual = 7.21165e-07, No Iterations 66
[...]
DILUPBiCGStab:  Solving for Y, Initial residual = 0.066016, Final residual = 7.45135e-07, No Iterations 66
DILUPBiCGStab:  Solving for Y, Initial residual = 0.0637101, Final residual = 9.73963e-07, No Iterations 65
DILUPBiCGStab:  Solving for Y, Initial residual = 0.0660151, Final residual = 7.2649e-07, No Iterations 65
DILUPBiCGStab:  Solving for Y, Initial residual = 0.06371, Final residual = 9.59717e-07, No Iterations 64
DILUPBiCGStab:  Solving for Y, Initial residual = 0.0660155, Final residual = 6.26605e-07, No Iterations 67
DILUPBiCGStab:  Solving for Y, Initial residual = 0.0637101, Final residual = 8.40532e-07, No Iterations 65
DILUPBiCGStab:  Solving for Y, Initial residual = 0.0660164, Final residual = 9.21738e-07, No Iterations 65
DILUPBiCGStab:  Solving for Y, Initial residual = 0.0637101, Final residual = 7.01958e-07, No Iterations 66
DILUPBiCGStab:  Solving for Y, Initial residual = 0.0660163, Final residual = 7.12678e-07, No Iterations 66
DILUPBiCGStab:  Solving for Y, Initial residual = 0.0637101, Final residual = 1.36963e-07, No Iterations 67
DILUPBiCGStab:  Solving for Y, Initial residual = 0.0660156, Final residual = 1.41471e-07, No Iterations 67
DILUPBiCGStab:  Solving for Y, Initial residual = 0.06371, Final residual = 5.95769e-07, No Iterations 66
DILUPBiCGStab:  Solving for Y, Initial residual = 0.0660162, Final residual = 7.58855e-07, No Iterations 66
DILUPBiCGStab:  Solving for Y, Initial residual = 0.0637101, Final residual = 4.08856e-07, No Iterations 67
DILUPBiCGStab:  Solving for Y, Initial residual = 0.066016, Final residual = 9.44357e-07, No Iterations 64
DILUPBiCGStab:  Solving for Y, Initial residual = 0.06371, Final residual = 1.52287e-07, No Iterations 67
DILUPBiCGStab:  Solving for Y, Initial residual = 0.0660156, Final residual = 8.09825e-07, No Iterations 66
DILUPBiCGStab:  Solving for Y, Initial residual = 0.0637101, Final residual = 9.49109e-07, No Iterations 66
DILUPBiCGStab:  Solving for Y, Initial residual = 0.0660166, Final residual = 6.89421e-07, No Iterations 66
DILUPBiCGStab:  Solving for Y, Initial residual = 0.0637101, Final residual = 3.48014e-07, No Iterations 66
DILUPBiCGStab:  Solving for Y, Initial residual = 0.0660159, Final residual = 9.69087e-07, No Iterations 64
DILUPBiCGStab:  Solving for Y, Initial residual = 0.06371, Final residual = 8.39303e-07, No Iterations 66
DILUPBiCGStab:  Solving for Y, Initial residual = 0.0660165, Final residual = 6.52776e-07, No Iterations 65
DILUPBiCGStab:  Solving for Y, Initial residual = 0.0637101, Final residual = 9.78288e-07, No Iterations 65
DILUPBiCGStab:  Solving for Y, Initial residual = 0.0660166, Final residual = 5.76506e-07, No Iterations 65
DILUPBiCGStab:  Solving for Y, Initial residual = 0.06371, Final residual = 6.45612e-07, No Iterations 66
DILUPBiCGStab:  Solving for Y, Initial residual = 0.0660162, Final residual = 3.45819e-07, No Iterations 67
DILUPBiCGStab:  Solving for Y, Initial residual = 0.0637101, Final residual = 8.78503e-07, No Iterations 66
DILUPBiCGStab:  Solving for Y, Initial residual = 0.0660165, Final residual = 9.7304e-07, No Iterations 65
DILUPBiCGStab:  Solving for Y, Initial residual = 0.0637101, Final residual = 8.06251e-07, No Iterations 66
DILUPBiCGStab:  Solving for Y, Initial residual = 0.0660164, Final residual = 9.53191e-07, No Iterations 66
DILUPBiCGStab:  Solving for Y, Initial residual = 0.0637101, Final residual = 9.0416e-07, No Iterations 65
DILUPBiCGStab:  Solving for Y, Initial residual = 0.0660165, Final residual = 7.21885e-07, No Iterations 65
DILUPBiCGStab:  Solving for Y, Initial residual = 0.0637101, Final residual = 7.31549e-07, No Iterations 66
DILUPBiCGStab:  Solving for Y, Initial residual = 0.0660164, Final residual = 9.65497e-07, No Iterations 64
DILUPBiCGStab:  Solving for Y, Initial residual = 0.06371, Final residual = 1.49776e-07, No Iterations 67
DILUPBiCGStab:  Solving for Y, Initial residual = 0.0660156, Final residual = 2.19334e-07, No Iterations 67
DILUPBiCGStab:  Solving for Y, Initial residual = 0.0637101, Final residual = 8.38944e-07, No Iterations 66
DILUPBiCGStab:  Solving for Y, Initial residual = 0.0660165, Final residual = 3.94947e-07, No Iterations 66
DILUPBiCGStab:  Solving for Ux, Initial residual = 7.29843e-05, Final residual = 8.36922e-08, No Iterations 1
DILUPBiCGStab:  Solving for Uy, Initial residual = 0.00012337, Final residual = 1.62523e-07, No Iterations 1
DILUPBiCGStab:  Solving for T, Initial residual = 7.83305e-06, Final residual = 7.08602e-08, No Iterations 1
DICPCG:  Solving for p_rgh, Initial residual = 0.000156565, Final residual = 1.46851e-06, No Iterations 46
time step continuity errors : sum local = 2.78103e-08, global = -5.58749e-09, cumulative = -4.3065e-06
ExecutionTime = 350.29 s  ClockTime = 350 s

Time = 598

DILUPBiCGStab:  Solving for Y, Initial residual = 0.063715, Final residual = 2.85129e-07, No Iterations 67
DILUPBiCGStab:  Solving for Y, Initial residual = 0.0660207, Final residual = 8.60289e-07, No Iterations 66
DILUPBiCGStab:  Solving for Y, Initial residual = 0.0637146, Final residual = 9.70058e-07, No Iterations 65
DILUPBiCGStab:  Solving for Y, Initial residual = 0.0660214, Final residual = 9.01051e-07, No Iterations 66
DILUPBiCGStab:  Solving for Y, Initial residual = 0.0637146, Final residual = 6.74452e-07, No Iterations 66
DILUPBiCGStab:  Solving for Y, Initial residual = 0.0660211, Final residual = 1.93398e-07, No Iterations 66
DILUPBiCGStab:  Solving for Y, Initial residual = 0.0637145, Final residual = 1.67834e-07, No Iterations 67
DILUPBiCGStab:  Solving for Y, Initial residual = 0.0660205, Final residual = 4.27006e-07, No Iterations 66
DILUPBiCGStab:  Solving for Y, Initial residual = 0.0637146, Final residual = 9.86258e-07, No Iterations 65
DILUPBiCGStab:  Solving for Y, Initial residual = 0.0660215, Final residual = 3.87441e-07, No Iterations 66
DILUPBiCGStab:  Solving for Y, Initial residual = 0.0637146, Final residual = 9.24524e-07, No Iterations 65
DILUPBiCGStab:  Solving for Y, Initial residual = 0.0660214, Final residual = 6.66579e-07, No Iterations 67
DILUPBiCGStab:  Solving for Y, Initial residual = 0.0637146, Final residual = 1.63993e-07, No Iterations 67
DILUPBiCGStab:  Solving for Y, Initial residual = 0.0660205, Final residual = 6.86684e-07, No Iterations 66
DILUPBiCGStab:  Solving for Y, Initial residual = 0.0637146, Final residual = 4.26974e-07, No Iterations 67
DILUPBiCGStab:  Solving for Y, Initial residual = 0.0660208, Final residual = 8.68593e-07, No Iterations 65
DILUPBiCGStab:  Solving for Y, Initial residual = 0.0637146, Final residual = 7.27743e-07, No Iterations 65
DILUPBiCGStab:  Solving for Y, Initial residual = 0.0660208, Final residual = 7.31864e-07, No Iterations 65
DILUPBiCGStab:  Solving for Y, Initial residual = 0.0637144, Final residual = 4.72597e-07, No Iterations 65
DILUPBiCGStab:  Solving for Y, Initial residual = 0.0660207, Final residual = 1.89891e-07, No Iterations 67
DILUPBiCGStab:  Solving for Y, Initial residual = 0.0637145, Final residual = 9.6627e-07, No Iterations 64
DILUPBiCGStab:  Solving for Y, Initial residual = 0.0660212, Final residual = 2.08486e-07, No Iterations 67
DILUPBiCGStab:  Solving for Y, Initial residual = 0.0637145, Final residual = 5.79366e-07, No Iterations 66
DILUPBiCGStab:  Solving for Y, Initial residual = 0.066021, Final residual = 1.48218e-07, No Iterations 67
DILUPBiCGStab:  Solving for Y, Initial residual = 0.0637145, Final residual = 8.68724e-07, No Iterations 66
DILUPBiCGStab:  Solving for Y, Initial residual = 0.0660213, Final residual = 2.96182e-07, No Iterations 66
DILUPBiCGStab:  Solving for Y, Initial residual = 0.0637145, Final residual = 8.72335e-07, No Iterations 65
DILUPBiCGStab:  Solving for Y, Initial residual = 0.0660213, Final residual = 8.27681e-07, No Iterations 66
DILUPBiCGStab:  Solving for Y, Initial residual = 0.0637146, Final residual = 7.49026e-07, No Iterations 66
DILUPBiCGStab:  Solving for Y, Initial residual = 0.0660212, Final residual = 2.18051e-07, No Iterations 67
DILUPBiCGStab:  Solving for Y, Initial residual = 0.0637145, Final residual = 1.55809e-07, No Iterations 67
DILUPBiCGStab:  Solving for Y, Initial residual = 0.0660204, Final residual = 8.72092e-07, No Iterations 65
DILUPBiCGStab:  Solving for Y, Initial residual = 0.0637146, Final residual = 9.63063e-07, No Iterations 64
DILUPBiCGStab:  Solving for Y, Initial residual = 0.066021, Final residual = 1.47754e-07, No Iterations 67
DILUPBiCGStab:  Solving for Y, Initial residual = 0.0637145, Final residual = 6.98747e-07, No Iterations 65
DILUPBiCGStab:  Solving for Y, Initial residual = 0.0660211, Final residual = 9.38448e-07, No Iterations 63
DILUPBiCGStab:  Solving for Y, Initial residual = 0.0637147, Final residual = 6.89445e-07, No Iterations 65
DILUPBiCGStab:  Solving for Y, Initial residual = 0.0660204, Final residual = 2.38472e-07, No Iterations 67
DILUPBiCGStab:  Solving for Y, Initial residual = 0.0637145, Final residual = 9.06743e-07, No Iterations 66
DILUPBiCGStab:  Solving for Y, Initial residual = 0.0660213, Final residual = 5.43921e-07, No Iterations 66
DILUPBiCGStab:  Solving for Ux, Initial residual = 7.2696e-05, Final residual = 8.34577e-08, No Iterations 1
DILUPBiCGStab:  Solving for Uy, Initial residual = 0.000122886, Final residual = 1.61492e-07, No Iterations 1
DILUPBiCGStab:  Solving for T, Initial residual = 7.79543e-06, Final residual = 7.06067e-08, No Iterations 1
DICPCG:  Solving for p_rgh, Initial residual = 0.000154611, Final residual = 1.46484e-06, No Iterations 46
time step continuity errors : sum local = 2.77403e-08, global = -5.59225e-09, cumulative = -4.31209e-06
ExecutionTime = 350.87 s  ClockTime = 351 s

Time = 599

DILUPBiCGStab:  Solving for Y, Initial residual = 0.0637194, Final residual = 9.80766e-07, No Iterations 64
DILUPBiCGStab:  Solving for Y, Initial residual = 0.0660262, Final residual = 1.82165e-07, No Iterations 67
DILUPBiCGStab:  Solving for Y, Initial residual = 0.063719, Final residual = 8.24056e-07, No Iterations 66
DILUPBiCGStab:  Solving for Y, Initial residual = 0.0660261, Final residual = 8.88839e-07, No Iterations 66
DILUPBiCGStab:  Solving for Y, Initial residual = 0.0637191, Final residual = 7.99513e-07, No Iterations 66
DILUPBiCGStab:  Solving for Y, Initial residual = 0.0660261, Final residual = 1.40902e-07, No Iterations 67
DILUPBiCGStab:  Solving for Y, Initial residual = 0.063719, Final residual = 5.07952e-07, No Iterations 67
DILUPBiCGStab:  Solving for Y, Initial residual = 0.0660257, Final residual = 1.40194e-07, No Iterations 66
DILUPBiCGStab:  Solving for Y, Initial residual = 0.063719, Final residual = 7.48846e-07, No Iterations 65
DILUPBiCGStab:  Solving for Y, Initial residual = 0.0660258, Final residual = 1.82393e-07, No Iterations 67
DILUPBiCGStab:  Solving for Y, Initial residual = 0.063719, Final residual = 7.11059e-07, No Iterations 66
DILUPBiCGStab:  Solving for Y, Initial residual = 0.066026, Final residual = 7.24559e-07, No Iterations 67
DILUPBiCGStab:  Solving for Y, Initial residual = 0.0637191, Final residual = 3.18485e-07, No Iterations 66
DILUPBiCGStab:  Solving for Y, Initial residual = 0.0660255, Final residual = 9.22096e-07, No Iterations 64
DILUPBiCGStab:  Solving for Y, Initial residual = 0.0637189, Final residual = 7.49279e-07, No Iterations 66
DILUPBiCGStab:  Solving for Y, Initial residual = 0.066026, Final residual = 2.7384e-07, No Iterations 66
DILUPBiCGStab:  Solving for Y, Initial residual = 0.063719, Final residual = 7.01103e-07, No Iterations 66
DILUPBiCGStab:  Solving for Y, Initial residual = 0.0660259, Final residual = 7.46548e-07, No Iterations 66
DILUPBiCGStab:  Solving for Y, Initial residual = 0.0637191, Final residual = 8.40072e-07, No Iterations 65
DILUPBiCGStab:  Solving for Y, Initial residual = 0.0660261, Final residual = 9.36784e-07, No Iterations 63
DILUPBiCGStab:  Solving for Y, Initial residual = 0.0637191, Final residual = 8.42148e-07, No Iterations 66
DILUPBiCGStab:  Solving for Y, Initial residual = 0.0660261, Final residual = 1.83218e-07, No Iterations 67
DILUPBiCGStab:  Solving for Y, Initial residual = 0.063719, Final residual = 7.01145e-07, No Iterations 66
DILUPBiCGStab:  Solving for Y, Initial residual = 0.0660259, Final residual = 4.69597e-07, No Iterations 66
DILUPBiCGStab:  Solving for Y, Initial residual = 0.063719, Final residual = 9.68146e-07, No Iterations 65
DILUPBiCGStab:  Solving for Y, Initial residual = 0.0660262, Final residual = 1.8307e-07, No Iterations 67
DILUPBiCGStab:  Solving for Y, Initial residual = 0.063719, Final residual = 7.22043e-07, No Iterations 65
DILUPBiCGStab:  Solving for Y, Initial residual = 0.0660259, Final residual = 6.76714e-07, No Iterations 65
DILUPBiCGStab:  Solving for Y, Initial residual = 0.063719, Final residual = 8.90494e-07, No Iterations 66
DILUPBiCGStab:  Solving for Y, Initial residual = 0.0660261, Final residual = 9.70636e-07, No Iterations 65
DILUPBiCGStab:  Solving for Y, Initial residual = 0.063719, Final residual = 7.0831e-07, No Iterations 66
DILUPBiCGStab:  Solving for Y, Initial residual = 0.066026, Final residual = 8.32695e-07, No Iterations 66
DILUPBiCGStab:  Solving for Y, Initial residual = 0.0637191, Final residual = 4.17999e-07, No Iterations 67
DILUPBiCGStab:  Solving for Y, Initial residual = 0.0660256, Final residual = 2.45797e-07, No Iterations 67
DILUPBiCGStab:  Solving for Y, Initial residual = 0.063719, Final residual = 1.49374e-07, No Iterations 66
DILUPBiCGStab:  Solving for Y, Initial residual = 0.0660252, Final residual = 9.64004e-07, No Iterations 66
DILUPBiCGStab:  Solving for Y, Initial residual = 0.0637191, Final residual = 2.13173e-07, No Iterations 67
DILUPBiCGStab:  Solving for Y, Initial residual = 0.0660254, Final residual = 7.51987e-07, No Iterations 66
DILUPBiCGStab:  Solving for Y, Initial residual = 0.0637191, Final residual = 7.05862e-07, No Iterations 66
DILUPBiCGStab:  Solving for Y, Initial residual = 0.0660259, Final residual = 7.99322e-07, No Iterations 66
DILUPBiCGStab:  Solving for Ux, Initial residual = 7.24037e-05, Final residual = 8.32158e-08, No Iterations 1
DILUPBiCGStab:  Solving for Uy, Initial residual = 0.00012239, Final residual = 1.60454e-07, No Iterations 1
DILUPBiCGStab:  Solving for T, Initial residual = 7.75724e-06, Final residual = 7.03461e-08, No Iterations 1
DICPCG:  Solving for p_rgh, Initial residual = 0.000152689, Final residual = 1.46023e-06, No Iterations 46
time step continuity errors : sum local = 2.76525e-08, global = -5.59235e-09, cumulative = -4.31768e-06
ExecutionTime = 351.45 s  ClockTime = 351 s

Time = 600

DILUPBiCGStab:  Solving for Y, Initial residual = 0.0637238, Final residual = 4.90404e-07, No Iterations 66
DILUPBiCGStab:  Solving for Y, Initial residual = 0.0660305, Final residual = 1.54667e-07, No Iterations 67
DILUPBiCGStab:  Solving for Y, Initial residual = 0.0637235, Final residual = 1.598e-07, No Iterations 67
DILUPBiCGStab:  Solving for Y, Initial residual = 0.0660301, Final residual = 1.40991e-07, No Iterations 66
DILUPBiCGStab:  Solving for Y, Initial residual = 0.0637235, Final residual = 3.74987e-07, No Iterations 67
DILUPBiCGStab:  Solving for Y, Initial residual = 0.0660304, Final residual = 6.3715e-07, No Iterations 66
DILUPBiCGStab:  Solving for Y, Initial residual = 0.0637235, Final residual = 8.40458e-07, No Iterations 65
DILUPBiCGStab:  Solving for Y, Initial residual = 0.0660309, Final residual = 8.82588e-07, No Iterations 65
DILUPBiCGStab:  Solving for Y, Initial residual = 0.0637235, Final residual = 8.06564e-07, No Iterations 66
DILUPBiCGStab:  Solving for Y, Initial residual = 0.0660309, Final residual = 7.46269e-07, No Iterations 66
DILUPBiCGStab:  Solving for Y, Initial residual = 0.0637235, Final residual = 7.86396e-07, No Iterations 66
DILUPBiCGStab:  Solving for Y, Initial residual = 0.0660309, Final residual = 9.39145e-07, No Iterations 65
DILUPBiCGStab:  Solving for Y, Initial residual = 0.0637235, Final residual = 1.64887e-07, No Iterations 67
DILUPBiCGStab:  Solving for Y, Initial residual = 0.0660301, Final residual = 3.7823e-07, No Iterations 66
DILUPBiCGStab:  Solving for Y, Initial residual = 0.0637235, Final residual = 7.80459e-07, No Iterations 66
DILUPBiCGStab:  Solving for Y, Initial residual = 0.0660309, Final residual = 9.91208e-07, No Iterations 65
DILUPBiCGStab:  Solving for Y, Initial residual = 0.0637236, Final residual = 7.12752e-07, No Iterations 66
DILUPBiCGStab:  Solving for Y, Initial residual = 0.0660308, Final residual = 2.2362e-07, No Iterations 66
DILUPBiCGStab:  Solving for Y, Initial residual = 0.0637235, Final residual = 8.91788e-07, No Iterations 65
DILUPBiCGStab:  Solving for Y, Initial residual = 0.0660309, Final residual = 7.29981e-07, No Iterations 66
DILUPBiCGStab:  Solving for Y, Initial residual = 0.0637235, Final residual = 7.17945e-07, No Iterations 64
DILUPBiCGStab:  Solving for Y, Initial residual = 0.0660303, Final residual = 2.43117e-07, No Iterations 67
DILUPBiCGStab:  Solving for Y, Initial residual = 0.0637235, Final residual = 7.22039e-07, No Iterations 65
DILUPBiCGStab:  Solving for Y, Initial residual = 0.0660303, Final residual = 8.50644e-07, No Iterations 65
DILUPBiCGStab:  Solving for Y, Initial residual = 0.0637235, Final residual = 9.97432e-07, No Iterations 65
DILUPBiCGStab:  Solving for Y, Initial residual = 0.0660311, Final residual = 1.2084e-07, No Iterations 68
DILUPBiCGStab:  Solving for Y, Initial residual = 0.0637235, Final residual = 8.53822e-07, No Iterations 65
DILUPBiCGStab:  Solving for Y, Initial residual = 0.066031, Final residual = 1.883e-07, No Iterations 67
DILUPBiCGStab:  Solving for Y, Initial residual = 0.0637235, Final residual = 5.28455e-07, No Iterations 66
DILUPBiCGStab:  Solving for Y, Initial residual = 0.0660306, Final residual = 5.91637e-07, No Iterations 65
DILUPBiCGStab:  Solving for Y, Initial residual = 0.0637234, Final residual = 9.57098e-07, No Iterations 65
DILUPBiCGStab:  Solving for Y, Initial residual = 0.066031, Final residual = 6.8993e-07, No Iterations 66
DILUPBiCGStab:  Solving for Y, Initial residual = 0.0637235, Final residual = 3.76234e-07, No Iterations 67
DILUPBiCGStab:  Solving for Y, Initial residual = 0.0660304, Final residual = 1.43883e-07, No Iterations 67
DILUPBiCGStab:  Solving for Y, Initial residual = 0.0637235, Final residual = 7.92509e-07, No Iterations 66
DILUPBiCGStab:  Solving for Y, Initial residual = 0.0660309, Final residual = 7.57874e-07, No Iterations 66
DILUPBiCGStab:  Solving for Y, Initial residual = 0.0637236, Final residual = 6.85605e-07, No Iterations 65
DILUPBiCGStab:  Solving for Y, Initial residual = 0.0660305, Final residual = 6.61144e-07, No Iterations 66
DILUPBiCGStab:  Solving for Y, Initial residual = 0.0637235, Final residual = 5.23504e-07, No Iterations 67
DILUPBiCGStab:  Solving for Y, Initial residual = 0.0660306, Final residual = 4.72327e-07, No Iterations 66
DILUPBiCGStab:  Solving for Ux, Initial residual = 7.21087e-05, Final residual = 8.29716e-08, No Iterations 1
DILUPBiCGStab:  Solving for Uy, Initial residual = 0.000121884, Final residual = 1.5941e-07, No Iterations 1
DILUPBiCGStab:  Solving for T, Initial residual = 7.71832e-06, Final residual = 7.00724e-08, No Iterations 1
DICPCG:  Solving for p_rgh, Initial residual = 0.000150788, Final residual = 1.45705e-06, No Iterations 46
time step continuity errors : sum local = 2.75916e-08, global = -5.58581e-09, cumulative = -4.32327e-06
ExecutionTime = 352.08 s  ClockTime = 352 s

forces forces write:
    sum of forces:
        pressure : (0.00049315 0.0647407 3.07126e-22)
        viscous  : (0.000534627 -2.06978e-05 -9.63073e-25)
        porous   : (0 0 0)
    sum of moments:
        pressure : (-0.0339889 0.000258904 0.0279387)
        viscous  : (1.08664e-05 0.000280679 -4.77923e-05)
        porous   : (0 0 0)

forceCoeffs forceCoeffs write:
    Cm    = 0.000499711
    Cd    = 1.84143e-05
    Cl    = 0.00115956
    Cl(f) = 0.00107949
    Cl(r) = 8.00711e-05

End

