/*---------------------------------------------------------------------------*\
| =========                 |                                                 |
| \\      /  F ield         | OpenFOAM: The Open Source CFD Toolbox           |
|  \\    /   O peration     | Version:  5.x                                   |
|   \\  /    A nd           | Web:      www.OpenFOAM.org                      |
|    \\/     M anipulation  |                                                 |
\*---------------------------------------------------------------------------*/
Build  : 5.x-197d9d3bf20a
Exec   : massBoussinesqSimpleFoam
Date   : Oct 08 2020
Time   : 12:08:33
Host   : "ubuntu"
PID    : 92209
I/O    : uncollated
Case   : /home/sid/OpenFOAM/OpenFOAM-5.0/applications/solvers/testSolvers/massBoussinesqSimpleFoam/tutorial/64A215/270K
nProcs : 1
sigFpe : Enabling floating point exception trapping (FOAM_SIGFPE).
fileModificationChecking : Monitoring run-time modified files using timeStampMaster (fileModificationSkew 10)
allowSystemOperations : Allowing user-supplied system call operations

// * * * * * * * * * * * * * * * * * * * * * * * * * * * * * * * * * * * * * //
Create time

Create mesh for time = 0


SIMPLE: convergence criteria
    field p_rgh	 tolerance 1e-05
    field U	 tolerance 1e-05
    field T	 tolerance 1e-05
    field "(k|epsilon|omega)"	 tolerance 1e-05

Reading thermophysical properties

Reading field T

--> FOAM Warning : 
    From function groovyBCFvPatchField<Type>::groovyBCFvPatchField(const fvPatch& p,const DimensionedField<Type, volMesh>& iF,const dictionary& dict)
    in file groovyBCFvPatchField.C at line 136
    No value defined for T on wing therefore using the internal field next to the patch
Reading field p_rgh

Reading field U

--> FOAM Warning : 
    From function groovyBCFvPatchField<Type>::groovyBCFvPatchField(const fvPatch& p,const DimensionedField<Type, volMesh>& iF,const dictionary& dict)
    in file groovyBCFvPatchField.C at line 136
    No value defined for Y on wing therefore using the internal field next to the patch
Reading/calculating face flux field phi

Selecting incompressible transport model Newtonian
Creating turbulence model

Selecting turbulence model type laminar
Selecting laminar stress model Stokes
Reading field alphat


Reading g

Reading hRef
Calculating field g.h

No MRF models present

Radiation model not active: radiationProperties not found
Selecting radiationModel none
No finite volume options present


Starting time loop

forces forces:
    Not including porosity effects
forces forceCoeffs:
    Not including porosity effects
forceCoeffs forceCoeffs:
    Not including porosity effects
Time = 1

swak4Foam: Allocating new repository for sampledGlobalVariables
DILUPBiCGStab:  Solving for Y, Initial residual = 1, Final residual = 1.6164e-08, No Iterations 47
DILUPBiCGStab:  Solving for Y, Initial residual = 0.0207188, Final residual = 2.62288e-07, No Iterations 82
DILUPBiCGStab:  Solving for Y, Initial residual = 0.0204693, Final residual = 2.45891e-07, No Iterations 76
DILUPBiCGStab:  Solving for Y, Initial residual = 0.0207188, Final residual = 3.13176e-07, No Iterations 81
DILUPBiCGStab:  Solving for Y, Initial residual = 0.0204644, Final residual = 1.85402e-07, No Iterations 78
DILUPBiCGStab:  Solving for Y, Initial residual = 0.0207187, Final residual = 3.68493e-07, No Iterations 80
DILUPBiCGStab:  Solving for Y, Initial residual = 0.0204642, Final residual = 7.95718e-07, No Iterations 78
DILUPBiCGStab:  Solving for Y, Initial residual = 0.0207183, Final residual = 8.39596e-07, No Iterations 81
DILUPBiCGStab:  Solving for Y, Initial residual = 0.0204645, Final residual = 5.56366e-07, No Iterations 80
DILUPBiCGStab:  Solving for Y, Initial residual = 0.0207185, Final residual = 6.46033e-07, No Iterations 82
DILUPBiCGStab:  Solving for Y, Initial residual = 0.0204645, Final residual = 1.43953e-07, No Iterations 83
DILUPBiCGStab:  Solving for Y, Initial residual = 0.0207187, Final residual = 4.25352e-07, No Iterations 104
DILUPBiCGStab:  Solving for Y, Initial residual = 0.0204644, Final residual = 8.40724e-07, No Iterations 77
DILUPBiCGStab:  Solving for Y, Initial residual = 0.0207191, Final residual = 6.21704e-07, No Iterations 75
DILUPBiCGStab:  Solving for Y, Initial residual = 0.0204644, Final residual = 1.65728e-07, No Iterations 84
DILUPBiCGStab:  Solving for Y, Initial residual = 0.0207188, Final residual = 5.8642e-07, No Iterations 80
DILUPBiCGStab:  Solving for Y, Initial residual = 0.0204644, Final residual = 4.7225e-07, No Iterations 78
DILUPBiCGStab:  Solving for Y, Initial residual = 0.020719, Final residual = 3.21083e-07, No Iterations 80
DILUPBiCGStab:  Solving for Y, Initial residual = 0.0204642, Final residual = 9.27461e-07, No Iterations 81
DILUPBiCGStab:  Solving for Y, Initial residual = 0.0207192, Final residual = 7.06376e-07, No Iterations 85
DILUPBiCGStab:  Solving for Y, Initial residual = 0.0204645, Final residual = 9.51992e-07, No Iterations 76
DILUPBiCGStab:  Solving for Y, Initial residual = 0.0207192, Final residual = 5.87317e-07, No Iterations 301
DILUPBiCGStab:  Solving for Y, Initial residual = 0.0204642, Final residual = 4.93694e-07, No Iterations 85
DILUPBiCGStab:  Solving for Y, Initial residual = 0.020719, Final residual = 2.68221e-07, No Iterations 81
DILUPBiCGStab:  Solving for Y, Initial residual = 0.0204644, Final residual = 6.2038e-07, No Iterations 80
DILUPBiCGStab:  Solving for Y, Initial residual = 0.0207189, Final residual = 3.69176e-07, No Iterations 80
DILUPBiCGStab:  Solving for Y, Initial residual = 0.0204644, Final residual = 1.23573e-07, No Iterations 79
DILUPBiCGStab:  Solving for Y, Initial residual = 0.0207187, Final residual = 7.74451e-07, No Iterations 90
DILUPBiCGStab:  Solving for Y, Initial residual = 0.0204645, Final residual = 4.97899e-07, No Iterations 138
DILUPBiCGStab:  Solving for Y, Initial residual = 0.0207185, Final residual = 6.4172e-07, No Iterations 78
DILUPBiCGStab:  Solving for Y, Initial residual = 0.0204645, Final residual = 8.60537e-07, No Iterations 79
DILUPBiCGStab:  Solving for Y, Initial residual = 0.0207192, Final residual = 4.61456e-07, No Iterations 84
DILUPBiCGStab:  Solving for Y, Initial residual = 0.0204642, Final residual = 6.01458e-07, No Iterations 83
DILUPBiCGStab:  Solving for Y, Initial residual = 0.020719, Final residual = 4.82782e-07, No Iterations 79
DILUPBiCGStab:  Solving for Y, Initial residual = 0.0204642, Final residual = 6.80553e-07, No Iterations 81
DILUPBiCGStab:  Solving for Y, Initial residual = 0.0207191, Final residual = 4.88668e-07, No Iterations 114
DILUPBiCGStab:  Solving for Y, Initial residual = 0.0204644, Final residual = 7.95069e-07, No Iterations 81
DILUPBiCGStab:  Solving for Y, Initial residual = 0.0207183, Final residual = 3.92042e-07, No Iterations 77
DILUPBiCGStab:  Solving for Y, Initial residual = 0.0204644, Final residual = 4.06056e-07, No Iterations 89
DILUPBiCGStab:  Solving for Y, Initial residual = 0.0207189, Final residual = 2.67097e-07, No Iterations 82
DILUPBiCGStab:  Solving for Ux, Initial residual = 1, Final residual = 8.39775e-07, No Iterations 2
DILUPBiCGStab:  Solving for Uy, Initial residual = 0.999915, Final residual = 6.85058e-08, No Iterations 3
DILUPBiCGStab:  Solving for T, Initial residual = 1, Final residual = 1.24336e-07, No Iterations 4
DICPCG:  Solving for p_rgh, Initial residual = 1, Final residual = 0.00814194, No Iterations 68
time step continuity errors : sum local = 0.00404531, global = 0.00019135, cumulative = 0.00019135
ExecutionTime = 0.84 s  ClockTime = 1 s

Time = 2

DILUPBiCGStab:  Solving for Y, Initial residual = 0.0916001, Final residual = 8.69615e-07, No Iterations 60
DILUPBiCGStab:  Solving for Y, Initial residual = 0.0320693, Final residual = 3.6733e-07, No Iterations 68
DILUPBiCGStab:  Solving for Y, Initial residual = 0.0314514, Final residual = 5.81957e-07, No Iterations 68
DILUPBiCGStab:  Solving for Y, Initial residual = 0.0320686, Final residual = 6.58244e-07, No Iterations 69
DILUPBiCGStab:  Solving for Y, Initial residual = 0.0314428, Final residual = 9.99248e-07, No Iterations 67
DILUPBiCGStab:  Solving for Y, Initial residual = 0.032069, Final residual = 8.5691e-07, No Iterations 68
DILUPBiCGStab:  Solving for Y, Initial residual = 0.0314429, Final residual = 8.18899e-07, No Iterations 67
DILUPBiCGStab:  Solving for Y, Initial residual = 0.0320689, Final residual = 9.76027e-07, No Iterations 67
DILUPBiCGStab:  Solving for Y, Initial residual = 0.0314429, Final residual = 7.16351e-07, No Iterations 68
DILUPBiCGStab:  Solving for Y, Initial residual = 0.0320688, Final residual = 5.1371e-07, No Iterations 69
DILUPBiCGStab:  Solving for Y, Initial residual = 0.0314427, Final residual = 2.96405e-07, No Iterations 69
DILUPBiCGStab:  Solving for Y, Initial residual = 0.0320683, Final residual = 4.41488e-07, No Iterations 68
DILUPBiCGStab:  Solving for Y, Initial residual = 0.0314426, Final residual = 7.27034e-07, No Iterations 68
DILUPBiCGStab:  Solving for Y, Initial residual = 0.0320687, Final residual = 3.88045e-07, No Iterations 68
DILUPBiCGStab:  Solving for Y, Initial residual = 0.0314426, Final residual = 4.67e-07, No Iterations 67
DILUPBiCGStab:  Solving for Y, Initial residual = 0.0320678, Final residual = 1.16861e-07, No Iterations 69
DILUPBiCGStab:  Solving for Y, Initial residual = 0.0314425, Final residual = 2.51158e-07, No Iterations 70
DILUPBiCGStab:  Solving for Y, Initial residual = 0.0320683, Final residual = 5.60492e-07, No Iterations 68
DILUPBiCGStab:  Solving for Y, Initial residual = 0.0314427, Final residual = 9.72292e-07, No Iterations 66
DILUPBiCGStab:  Solving for Y, Initial residual = 0.032069, Final residual = 7.93714e-07, No Iterations 68
DILUPBiCGStab:  Solving for Y, Initial residual = 0.0314428, Final residual = 5.64127e-07, No Iterations 68
DILUPBiCGStab:  Solving for Y, Initial residual = 0.0320686, Final residual = 3.36334e-07, No Iterations 68
DILUPBiCGStab:  Solving for Y, Initial residual = 0.0314426, Final residual = 6.05868e-07, No Iterations 68
DILUPBiCGStab:  Solving for Y, Initial residual = 0.0320686, Final residual = 5.75321e-07, No Iterations 67
DILUPBiCGStab:  Solving for Y, Initial residual = 0.0314423, Final residual = 4.33498e-07, No Iterations 67
DILUPBiCGStab:  Solving for Y, Initial residual = 0.0320685, Final residual = 9.95751e-07, No Iterations 67
DILUPBiCGStab:  Solving for Y, Initial residual = 0.0314429, Final residual = 2.41707e-07, No Iterations 69
DILUPBiCGStab:  Solving for Y, Initial residual = 0.0320683, Final residual = 5.07431e-07, No Iterations 68
DILUPBiCGStab:  Solving for Y, Initial residual = 0.0314427, Final residual = 6.47752e-07, No Iterations 68
DILUPBiCGStab:  Solving for Y, Initial residual = 0.0320687, Final residual = 6.70312e-07, No Iterations 68
DILUPBiCGStab:  Solving for Y, Initial residual = 0.0314428, Final residual = 4.69791e-07, No Iterations 67
DILUPBiCGStab:  Solving for Y, Initial residual = 0.0320685, Final residual = 5.44265e-07, No Iterations 68
DILUPBiCGStab:  Solving for Y, Initial residual = 0.0314427, Final residual = 2.51257e-07, No Iterations 68
DILUPBiCGStab:  Solving for Y, Initial residual = 0.0320683, Final residual = 5.54225e-07, No Iterations 68
DILUPBiCGStab:  Solving for Y, Initial residual = 0.0314427, Final residual = 6.03163e-07, No Iterations 67
DILUPBiCGStab:  Solving for Y, Initial residual = 0.0320686, Final residual = 1.72263e-07, No Iterations 68
DILUPBiCGStab:  Solving for Y, Initial residual = 0.0314425, Final residual = 6.43914e-07, No Iterations 68
DILUPBiCGStab:  Solving for Y, Initial residual = 0.0320687, Final residual = 4.13804e-07, No Iterations 68
DILUPBiCGStab:  Solving for Y, Initial residual = 0.0314426, Final residual = 5.93533e-07, No Iterations 68
DILUPBiCGStab:  Solving for Y, Initial residual = 0.0320686, Final residual = 4.70457e-07, No Iterations 68
DILUPBiCGStab:  Solving for Ux, Initial residual = 0.400398, Final residual = 1.60776e-07, No Iterations 3
DILUPBiCGStab:  Solving for Uy, Initial residual = 0.406578, Final residual = 4.22687e-07, No Iterations 3
DILUPBiCGStab:  Solving for T, Initial residual = 0.0302288, Final residual = 1.73038e-07, No Iterations 3
DICPCG:  Solving for p_rgh, Initial residual = 0.637775, Final residual = 0.00587397, No Iterations 58
time step continuity errors : sum local = 0.0159183, global = 8.69262e-05, cumulative = 0.000278276
ExecutionTime = 1.46 s  ClockTime = 2 s

Time = 3

DILUPBiCGStab:  Solving for Y, Initial residual = 0.0430376, Final residual = 9.71744e-08, No Iterations 66
DILUPBiCGStab:  Solving for Y, Initial residual = 0.0312748, Final residual = 3.29619e-07, No Iterations 68
DILUPBiCGStab:  Solving for Y, Initial residual = 0.0306793, Final residual = 1.70706e-07, No Iterations 68
DILUPBiCGStab:  Solving for Y, Initial residual = 0.0312747, Final residual = 9.79169e-07, No Iterations 68
DILUPBiCGStab:  Solving for Y, Initial residual = 0.0306792, Final residual = 7.45992e-07, No Iterations 68
DILUPBiCGStab:  Solving for Y, Initial residual = 0.0312754, Final residual = 3.3866e-07, No Iterations 68
DILUPBiCGStab:  Solving for Y, Initial residual = 0.0306786, Final residual = 4.84291e-07, No Iterations 67
DILUPBiCGStab:  Solving for Y, Initial residual = 0.0312751, Final residual = 2.19919e-07, No Iterations 68
DILUPBiCGStab:  Solving for Y, Initial residual = 0.0306787, Final residual = 5.00735e-07, No Iterations 68
DILUPBiCGStab:  Solving for Y, Initial residual = 0.0312752, Final residual = 5.27552e-07, No Iterations 68
DILUPBiCGStab:  Solving for Y, Initial residual = 0.030679, Final residual = 2.81071e-07, No Iterations 69
DILUPBiCGStab:  Solving for Y, Initial residual = 0.031275, Final residual = 5.58001e-07, No Iterations 68
DILUPBiCGStab:  Solving for Y, Initial residual = 0.030679, Final residual = 7.87032e-07, No Iterations 68
DILUPBiCGStab:  Solving for Y, Initial residual = 0.0312755, Final residual = 2.1088e-07, No Iterations 69
DILUPBiCGStab:  Solving for Y, Initial residual = 0.0306789, Final residual = 3.34085e-07, No Iterations 68
DILUPBiCGStab:  Solving for Y, Initial residual = 0.031275, Final residual = 8.9845e-07, No Iterations 68
DILUPBiCGStab:  Solving for Y, Initial residual = 0.0306792, Final residual = 4.75632e-07, No Iterations 69
DILUPBiCGStab:  Solving for Y, Initial residual = 0.0312752, Final residual = 5.12827e-07, No Iterations 68
DILUPBiCGStab:  Solving for Y, Initial residual = 0.030679, Final residual = 8.76791e-07, No Iterations 68
DILUPBiCGStab:  Solving for Y, Initial residual = 0.0312756, Final residual = 1.14846e-07, No Iterations 68
DILUPBiCGStab:  Solving for Y, Initial residual = 0.0306788, Final residual = 3.24592e-07, No Iterations 69
DILUPBiCGStab:  Solving for Y, Initial residual = 0.031275, Final residual = 4.76527e-07, No Iterations 69
DILUPBiCGStab:  Solving for Y, Initial residual = 0.030679, Final residual = 8.18698e-07, No Iterations 68
DILUPBiCGStab:  Solving for Y, Initial residual = 0.0312755, Final residual = 3.80457e-07, No Iterations 68
DILUPBiCGStab:  Solving for Y, Initial residual = 0.0306789, Final residual = 6.82907e-07, No Iterations 68
DILUPBiCGStab:  Solving for Y, Initial residual = 0.0312754, Final residual = 2.66391e-07, No Iterations 69
DILUPBiCGStab:  Solving for Y, Initial residual = 0.0306789, Final residual = 9.34289e-07, No Iterations 68
DILUPBiCGStab:  Solving for Y, Initial residual = 0.0312756, Final residual = 5.66656e-07, No Iterations 68
DILUPBiCGStab:  Solving for Y, Initial residual = 0.030679, Final residual = 4.41837e-07, No Iterations 69
DILUPBiCGStab:  Solving for Y, Initial residual = 0.0312751, Final residual = 2.35677e-07, No Iterations 69
DILUPBiCGStab:  Solving for Y, Initial residual = 0.0306789, Final residual = 3.19752e-07, No Iterations 69
DILUPBiCGStab:  Solving for Y, Initial residual = 0.031275, Final residual = 9.54107e-07, No Iterations 67
DILUPBiCGStab:  Solving for Y, Initial residual = 0.0306792, Final residual = 6.63563e-07, No Iterations 68
DILUPBiCGStab:  Solving for Y, Initial residual = 0.0312754, Final residual = 6.17e-07, No Iterations 68
DILUPBiCGStab:  Solving for Y, Initial residual = 0.0306791, Final residual = 4.05895e-07, No Iterations 69
DILUPBiCGStab:  Solving for Y, Initial residual = 0.0312751, Final residual = 6.76106e-07, No Iterations 68
DILUPBiCGStab:  Solving for Y, Initial residual = 0.0306791, Final residual = 4.83974e-07, No Iterations 69
DILUPBiCGStab:  Solving for Y, Initial residual = 0.0312752, Final residual = 1.8492e-07, No Iterations 68
DILUPBiCGStab:  Solving for Y, Initial residual = 0.0306787, Final residual = 1.2385e-07, No Iterations 70
DILUPBiCGStab:  Solving for Y, Initial residual = 0.0312748, Final residual = 9.00951e-07, No Iterations 67
DILUPBiCGStab:  Solving for Ux, Initial residual = 0.0981137, Final residual = 3.27388e-07, No Iterations 2
DILUPBiCGStab:  Solving for Uy, Initial residual = 0.11028, Final residual = 3.35363e-07, No Iterations 2
DILUPBiCGStab:  Solving for T, Initial residual = 0.0150719, Final residual = 9.55804e-07, No Iterations 2
DICPCG:  Solving for p_rgh, Initial residual = 0.247989, Final residual = 0.00216065, No Iterations 60
time step continuity errors : sum local = 0.00699926, global = 5.73136e-05, cumulative = 0.000335589
ExecutionTime = 2.17 s  ClockTime = 2 s

Time = 4

DILUPBiCGStab:  Solving for Y, Initial residual = 0.0378092, Final residual = 2.06545e-07, No Iterations 61
DILUPBiCGStab:  Solving for Y, Initial residual = 0.0312777, Final residual = 7.67306e-07, No Iterations 68
DILUPBiCGStab:  Solving for Y, Initial residual = 0.0306822, Final residual = 3.53452e-07, No Iterations 68
DILUPBiCGStab:  Solving for Y, Initial residual = 0.0312779, Final residual = 5.43381e-07, No Iterations 68
DILUPBiCGStab:  Solving for Y, Initial residual = 0.0306821, Final residual = 5.48542e-07, No Iterations 67
DILUPBiCGStab:  Solving for Y, Initial residual = 0.0312781, Final residual = 5.2385e-07, No Iterations 68
DILUPBiCGStab:  Solving for Y, Initial residual = 0.0306821, Final residual = 8.61709e-07, No Iterations 68
DILUPBiCGStab:  Solving for Y, Initial residual = 0.0312784, Final residual = 9.91746e-07, No Iterations 67
DILUPBiCGStab:  Solving for Y, Initial residual = 0.0306823, Final residual = 2.16601e-07, No Iterations 67
DILUPBiCGStab:  Solving for Y, Initial residual = 0.0312775, Final residual = 4.82286e-07, No Iterations 68
DILUPBiCGStab:  Solving for Y, Initial residual = 0.0306821, Final residual = 2.93698e-07, No Iterations 69
DILUPBiCGStab:  Solving for Y, Initial residual = 0.0312779, Final residual = 4.60838e-07, No Iterations 67
DILUPBiCGStab:  Solving for Y, Initial residual = 0.0306817, Final residual = 1.8308e-07, No Iterations 69
DILUPBiCGStab:  Solving for Y, Initial residual = 0.0312777, Final residual = 4.99566e-07, No Iterations 68
DILUPBiCGStab:  Solving for Y, Initial residual = 0.0306821, Final residual = 3.0803e-07, No Iterations 69
DILUPBiCGStab:  Solving for Y, Initial residual = 0.0312779, Final residual = 7.66613e-07, No Iterations 68
DILUPBiCGStab:  Solving for Y, Initial residual = 0.0306822, Final residual = 3.3008e-07, No Iterations 69
DILUPBiCGStab:  Solving for Y, Initial residual = 0.0312779, Final residual = 6.85983e-07, No Iterations 66
DILUPBiCGStab:  Solving for Y, Initial residual = 0.0306822, Final residual = 8.92426e-07, No Iterations 68
DILUPBiCGStab:  Solving for Y, Initial residual = 0.0312784, Final residual = 3.18784e-07, No Iterations 69
DILUPBiCGStab:  Solving for Y, Initial residual = 0.030682, Final residual = 3.3447e-07, No Iterations 68
DILUPBiCGStab:  Solving for Y, Initial residual = 0.0312773, Final residual = 6.7408e-07, No Iterations 68
DILUPBiCGStab:  Solving for Y, Initial residual = 0.0306822, Final residual = 5.77294e-07, No Iterations 67
DILUPBiCGStab:  Solving for Y, Initial residual = 0.0312781, Final residual = 1.30995e-07, No Iterations 68
DILUPBiCGStab:  Solving for Y, Initial residual = 0.0306819, Final residual = 4.63527e-07, No Iterations 68
DILUPBiCGStab:  Solving for Y, Initial residual = 0.0312772, Final residual = 3.69127e-07, No Iterations 69
DILUPBiCGStab:  Solving for Y, Initial residual = 0.030682, Final residual = 1.41587e-07, No Iterations 69
DILUPBiCGStab:  Solving for Y, Initial residual = 0.0312777, Final residual = 7.64543e-07, No Iterations 68
DILUPBiCGStab:  Solving for Y, Initial residual = 0.0306822, Final residual = 5.10713e-07, No Iterations 68
DILUPBiCGStab:  Solving for Y, Initial residual = 0.0312781, Final residual = 3.71217e-07, No Iterations 68
DILUPBiCGStab:  Solving for Y, Initial residual = 0.030682, Final residual = 6.07414e-07, No Iterations 69
DILUPBiCGStab:  Solving for Y, Initial residual = 0.0312782, Final residual = 9.12246e-07, No Iterations 67
DILUPBiCGStab:  Solving for Y, Initial residual = 0.0306823, Final residual = 7.58839e-07, No Iterations 67
DILUPBiCGStab:  Solving for Y, Initial residual = 0.0312783, Final residual = 3.61365e-07, No Iterations 68
DILUPBiCGStab:  Solving for Y, Initial residual = 0.030682, Final residual = 5.04678e-07, No Iterations 68
DILUPBiCGStab:  Solving for Y, Initial residual = 0.0312781, Final residual = 3.16097e-07, No Iterations 69
DILUPBiCGStab:  Solving for Y, Initial residual = 0.030682, Final residual = 5.58741e-07, No Iterations 68
DILUPBiCGStab:  Solving for Y, Initial residual = 0.0312781, Final residual = 5.8205e-07, No Iterations 68
DILUPBiCGStab:  Solving for Y, Initial residual = 0.0306821, Final residual = 3.93489e-07, No Iterations 68
DILUPBiCGStab:  Solving for Y, Initial residual = 0.0312779, Final residual = 1.67928e-07, No Iterations 69
DILUPBiCGStab:  Solving for Ux, Initial residual = 0.0859786, Final residual = 2.38928e-07, No Iterations 2
DILUPBiCGStab:  Solving for Uy, Initial residual = 0.0946421, Final residual = 3.61124e-07, No Iterations 2
DILUPBiCGStab:  Solving for T, Initial residual = 0.0100156, Final residual = 6.34527e-07, No Iterations 2
DICPCG:  Solving for p_rgh, Initial residual = 0.31386, Final residual = 0.00274909, No Iterations 50
time step continuity errors : sum local = 0.00697375, global = -0.000189403, cumulative = 0.000146187
ExecutionTime = 2.77 s  ClockTime = 3 s

Time = 5

DILUPBiCGStab:  Solving for Y, Initial residual = 0.0336237, Final residual = 2.94762e-07, No Iterations 64
DILUPBiCGStab:  Solving for Y, Initial residual = 0.0311509, Final residual = 8.7391e-07, No Iterations 67
DILUPBiCGStab:  Solving for Y, Initial residual = 0.0305607, Final residual = 4.05715e-07, No Iterations 68
DILUPBiCGStab:  Solving for Y, Initial residual = 0.0311513, Final residual = 2.89531e-07, No Iterations 69
DILUPBiCGStab:  Solving for Y, Initial residual = 0.0305604, Final residual = 1.68806e-07, No Iterations 68
DILUPBiCGStab:  Solving for Y, Initial residual = 0.031151, Final residual = 5.42464e-07, No Iterations 68
DILUPBiCGStab:  Solving for Y, Initial residual = 0.0305605, Final residual = 4.10305e-07, No Iterations 69
DILUPBiCGStab:  Solving for Y, Initial residual = 0.0311513, Final residual = 8.32705e-07, No Iterations 68
DILUPBiCGStab:  Solving for Y, Initial residual = 0.0305607, Final residual = 4.6513e-07, No Iterations 67
DILUPBiCGStab:  Solving for Y, Initial residual = 0.0311513, Final residual = 9.04443e-07, No Iterations 66
DILUPBiCGStab:  Solving for Y, Initial residual = 0.0305607, Final residual = 2.93648e-07, No Iterations 69
DILUPBiCGStab:  Solving for Y, Initial residual = 0.0311512, Final residual = 9.04016e-07, No Iterations 68
DILUPBiCGStab:  Solving for Y, Initial residual = 0.0305607, Final residual = 8.67812e-07, No Iterations 68
DILUPBiCGStab:  Solving for Y, Initial residual = 0.0311517, Final residual = 4.92098e-07, No Iterations 67
DILUPBiCGStab:  Solving for Y, Initial residual = 0.0305605, Final residual = 5.08859e-07, No Iterations 68
DILUPBiCGStab:  Solving for Y, Initial residual = 0.0311514, Final residual = 4.45897e-07, No Iterations 68
DILUPBiCGStab:  Solving for Y, Initial residual = 0.0305605, Final residual = 6.30358e-07, No Iterations 68
DILUPBiCGStab:  Solving for Y, Initial residual = 0.0311515, Final residual = 9.19914e-07, No Iterations 68
DILUPBiCGStab:  Solving for Y, Initial residual = 0.0305607, Final residual = 4.76337e-07, No Iterations 68
DILUPBiCGStab:  Solving for Y, Initial residual = 0.0311513, Final residual = 9.03084e-07, No Iterations 67
DILUPBiCGStab:  Solving for Y, Initial residual = 0.0305607, Final residual = 7.4453e-07, No Iterations 68
DILUPBiCGStab:  Solving for Y, Initial residual = 0.0311516, Final residual = 9.76467e-08, No Iterations 69
DILUPBiCGStab:  Solving for Y, Initial residual = 0.0305603, Final residual = 6.47261e-07, No Iterations 68
DILUPBiCGStab:  Solving for Y, Initial residual = 0.0311515, Final residual = 7.56537e-07, No Iterations 68
DILUPBiCGStab:  Solving for Y, Initial residual = 0.0305606, Final residual = 6.59005e-07, No Iterations 68
DILUPBiCGStab:  Solving for Y, Initial residual = 0.0311515, Final residual = 4.44839e-07, No Iterations 69
DILUPBiCGStab:  Solving for Y, Initial residual = 0.0305605, Final residual = 3.18896e-07, No Iterations 68
DILUPBiCGStab:  Solving for Y, Initial residual = 0.0311512, Final residual = 8.20149e-07, No Iterations 67
DILUPBiCGStab:  Solving for Y, Initial residual = 0.0305606, Final residual = 4.97079e-07, No Iterations 68
DILUPBiCGStab:  Solving for Y, Initial residual = 0.0311514, Final residual = 6.97726e-07, No Iterations 68
DILUPBiCGStab:  Solving for Y, Initial residual = 0.0305606, Final residual = 2.51087e-07, No Iterations 69
DILUPBiCGStab:  Solving for Y, Initial residual = 0.0311511, Final residual = 1.71155e-07, No Iterations 68
DILUPBiCGStab:  Solving for Y, Initial residual = 0.0305603, Final residual = 5.92077e-07, No Iterations 68
DILUPBiCGStab:  Solving for Y, Initial residual = 0.0311515, Final residual = 6.8514e-07, No Iterations 68
DILUPBiCGStab:  Solving for Y, Initial residual = 0.0305606, Final residual = 4.71439e-07, No Iterations 68
DILUPBiCGStab:  Solving for Y, Initial residual = 0.0311513, Final residual = 8.94113e-07, No Iterations 68
DILUPBiCGStab:  Solving for Y, Initial residual = 0.0305607, Final residual = 7.0669e-07, No Iterations 68
DILUPBiCGStab:  Solving for Y, Initial residual = 0.0311516, Final residual = 7.416e-07, No Iterations 68
DILUPBiCGStab:  Solving for Y, Initial residual = 0.0305606, Final residual = 2.82212e-07, No Iterations 69
DILUPBiCGStab:  Solving for Y, Initial residual = 0.0311511, Final residual = 5.30577e-07, No Iterations 68
DILUPBiCGStab:  Solving for Ux, Initial residual = 0.0748299, Final residual = 2.33696e-07, No Iterations 2
DILUPBiCGStab:  Solving for Uy, Initial residual = 0.0815214, Final residual = 3.38201e-07, No Iterations 2
DILUPBiCGStab:  Solving for T, Initial residual = 0.00750487, Final residual = 4.73286e-07, No Iterations 2
DICPCG:  Solving for p_rgh, Initial residual = 0.338283, Final residual = 0.00283334, No Iterations 58
time step continuity errors : sum local = 0.0043718, global = -2.99269e-05, cumulative = 0.00011626
ExecutionTime = 3.39 s  ClockTime = 4 s

Time = 6

DILUPBiCGStab:  Solving for Y, Initial residual = 0.0330386, Final residual = 9.7972e-07, No Iterations 62
DILUPBiCGStab:  Solving for Y, Initial residual = 0.0310065, Final residual = 2.48386e-07, No Iterations 68
DILUPBiCGStab:  Solving for Y, Initial residual = 0.0304207, Final residual = 7.22721e-07, No Iterations 68
DILUPBiCGStab:  Solving for Y, Initial residual = 0.0310062, Final residual = 3.80537e-07, No Iterations 69
DILUPBiCGStab:  Solving for Y, Initial residual = 0.0304208, Final residual = 5.9226e-07, No Iterations 69
DILUPBiCGStab:  Solving for Y, Initial residual = 0.0310061, Final residual = 6.30097e-07, No Iterations 68
DILUPBiCGStab:  Solving for Y, Initial residual = 0.0304209, Final residual = 1.52794e-07, No Iterations 68
DILUPBiCGStab:  Solving for Y, Initial residual = 0.0310055, Final residual = 5.94285e-07, No Iterations 68
DILUPBiCGStab:  Solving for Y, Initial residual = 0.0304209, Final residual = 7.93828e-07, No Iterations 67
DILUPBiCGStab:  Solving for Y, Initial residual = 0.0310049, Final residual = 2.68148e-07, No Iterations 69
DILUPBiCGStab:  Solving for Y, Initial residual = 0.0304208, Final residual = 8.41963e-07, No Iterations 67
DILUPBiCGStab:  Solving for Y, Initial residual = 0.0310063, Final residual = 4.30173e-07, No Iterations 68
DILUPBiCGStab:  Solving for Y, Initial residual = 0.0304204, Final residual = 3.67522e-07, No Iterations 68
DILUPBiCGStab:  Solving for Y, Initial residual = 0.0310059, Final residual = 6.26893e-07, No Iterations 68
DILUPBiCGStab:  Solving for Y, Initial residual = 0.0304209, Final residual = 6.78323e-07, No Iterations 68
DILUPBiCGStab:  Solving for Y, Initial residual = 0.0310062, Final residual = 8.26506e-07, No Iterations 68
DILUPBiCGStab:  Solving for Y, Initial residual = 0.030421, Final residual = 7.59703e-07, No Iterations 68
DILUPBiCGStab:  Solving for Y, Initial residual = 0.0310063, Final residual = 9.29312e-07, No Iterations 67
DILUPBiCGStab:  Solving for Y, Initial residual = 0.030421, Final residual = 9.22919e-07, No Iterations 68
DILUPBiCGStab:  Solving for Y, Initial residual = 0.0310064, Final residual = 4.80643e-07, No Iterations 67
DILUPBiCGStab:  Solving for Y, Initial residual = 0.0304208, Final residual = 5.29026e-07, No Iterations 67
DILUPBiCGStab:  Solving for Y, Initial residual = 0.0310052, Final residual = 7.51572e-07, No Iterations 68
DILUPBiCGStab:  Solving for Y, Initial residual = 0.030421, Final residual = 5.20385e-07, No Iterations 69
DILUPBiCGStab:  Solving for Y, Initial residual = 0.031006, Final residual = 7.42708e-07, No Iterations 68
DILUPBiCGStab:  Solving for Y, Initial residual = 0.030421, Final residual = 2.8241e-07, No Iterations 68
DILUPBiCGStab:  Solving for Y, Initial residual = 0.0310058, Final residual = 3.29552e-07, No Iterations 67
DILUPBiCGStab:  Solving for Y, Initial residual = 0.0304206, Final residual = 7.22773e-07, No Iterations 68
DILUPBiCGStab:  Solving for Y, Initial residual = 0.0310062, Final residual = 9.09163e-07, No Iterations 67
DILUPBiCGStab:  Solving for Y, Initial residual = 0.0304211, Final residual = 5.44948e-07, No Iterations 68
DILUPBiCGStab:  Solving for Y, Initial residual = 0.031006, Final residual = 9.18896e-07, No Iterations 68
DILUPBiCGStab:  Solving for Y, Initial residual = 0.0304211, Final residual = 4.8872e-07, No Iterations 68
DILUPBiCGStab:  Solving for Y, Initial residual = 0.031006, Final residual = 8.27082e-07, No Iterations 68
DILUPBiCGStab:  Solving for Y, Initial residual = 0.030421, Final residual = 8.92413e-07, No Iterations 68
DILUPBiCGStab:  Solving for Y, Initial residual = 0.0310064, Final residual = 7.02323e-07, No Iterations 68
DILUPBiCGStab:  Solving for Y, Initial residual = 0.030421, Final residual = 1.5916e-07, No Iterations 68
DILUPBiCGStab:  Solving for Y, Initial residual = 0.0310056, Final residual = 4.09856e-07, No Iterations 68
DILUPBiCGStab:  Solving for Y, Initial residual = 0.0304208, Final residual = 3.28148e-07, No Iterations 68
DILUPBiCGStab:  Solving for Y, Initial residual = 0.0310058, Final residual = 5.74227e-07, No Iterations 68
DILUPBiCGStab:  Solving for Y, Initial residual = 0.0304209, Final residual = 1.38011e-07, No Iterations 68
DILUPBiCGStab:  Solving for Y, Initial residual = 0.0310056, Final residual = 1.72834e-07, No Iterations 69
DILUPBiCGStab:  Solving for Ux, Initial residual = 0.0156741, Final residual = 2.05296e-07, No Iterations 2
DILUPBiCGStab:  Solving for Uy, Initial residual = 0.0168634, Final residual = 7.46909e-08, No Iterations 2
DILUPBiCGStab:  Solving for T, Initial residual = 0.0060223, Final residual = 3.74578e-07, No Iterations 2
DICPCG:  Solving for p_rgh, Initial residual = 0.300988, Final residual = 0.00296783, No Iterations 33
time step continuity errors : sum local = 0.00261379, global = -0.00053441, cumulative = -0.00041815
ExecutionTime = 3.99 s  ClockTime = 4 s

Time = 7

DILUPBiCGStab:  Solving for Y, Initial residual = 0.0317723, Final residual = 8.29273e-07, No Iterations 67
DILUPBiCGStab:  Solving for Y, Initial residual = 0.0309524, Final residual = 3.22104e-07, No Iterations 69
DILUPBiCGStab:  Solving for Y, Initial residual = 0.0303691, Final residual = 6.76695e-07, No Iterations 68
DILUPBiCGStab:  Solving for Y, Initial residual = 0.0309523, Final residual = 4.53733e-07, No Iterations 68
DILUPBiCGStab:  Solving for Y, Initial residual = 0.0303691, Final residual = 6.09206e-07, No Iterations 68
DILUPBiCGStab:  Solving for Y, Initial residual = 0.0309522, Final residual = 6.80445e-07, No Iterations 67
DILUPBiCGStab:  Solving for Y, Initial residual = 0.0303693, Final residual = 4.97779e-07, No Iterations 68
DILUPBiCGStab:  Solving for Y, Initial residual = 0.0309521, Final residual = 4.80698e-07, No Iterations 67
DILUPBiCGStab:  Solving for Y, Initial residual = 0.0303691, Final residual = 6.75223e-07, No Iterations 68
DILUPBiCGStab:  Solving for Y, Initial residual = 0.0309523, Final residual = 1.29408e-07, No Iterations 68
DILUPBiCGStab:  Solving for Y, Initial residual = 0.030369, Final residual = 2.42397e-07, No Iterations 69
DILUPBiCGStab:  Solving for Y, Initial residual = 0.0309519, Final residual = 5.65648e-07, No Iterations 68
DILUPBiCGStab:  Solving for Y, Initial residual = 0.0303692, Final residual = 3.02095e-07, No Iterations 68
DILUPBiCGStab:  Solving for Y, Initial residual = 0.0309519, Final residual = 8.54656e-07, No Iterations 68
DILUPBiCGStab:  Solving for Y, Initial residual = 0.0303694, Final residual = 3.57937e-07, No Iterations 68
DILUPBiCGStab:  Solving for Y, Initial residual = 0.030952, Final residual = 8.27064e-07, No Iterations 67
DILUPBiCGStab:  Solving for Y, Initial residual = 0.0303693, Final residual = 6.82406e-07, No Iterations 68
DILUPBiCGStab:  Solving for Y, Initial residual = 0.0309523, Final residual = 4.56649e-07, No Iterations 68
DILUPBiCGStab:  Solving for Y, Initial residual = 0.0303691, Final residual = 6.57713e-07, No Iterations 68
DILUPBiCGStab:  Solving for Y, Initial residual = 0.0309523, Final residual = 7.45899e-07, No Iterations 68
DILUPBiCGStab:  Solving for Y, Initial residual = 0.0303693, Final residual = 5.75468e-07, No Iterations 68
DILUPBiCGStab:  Solving for Y, Initial residual = 0.0309522, Final residual = 4.72193e-07, No Iterations 68
DILUPBiCGStab:  Solving for Y, Initial residual = 0.0303692, Final residual = 3.15933e-07, No Iterations 69
DILUPBiCGStab:  Solving for Y, Initial residual = 0.0309519, Final residual = 9.3935e-07, No Iterations 66
DILUPBiCGStab:  Solving for Y, Initial residual = 0.0303691, Final residual = 7.32477e-07, No Iterations 68
DILUPBiCGStab:  Solving for Y, Initial residual = 0.0309524, Final residual = 7.08796e-07, No Iterations 67
DILUPBiCGStab:  Solving for Y, Initial residual = 0.0303686, Final residual = 6.00873e-07, No Iterations 67
DILUPBiCGStab:  Solving for Y, Initial residual = 0.0309522, Final residual = 8.35782e-07, No Iterations 68
DILUPBiCGStab:  Solving for Y, Initial residual = 0.0303693, Final residual = 6.37497e-07, No Iterations 68
DILUPBiCGStab:  Solving for Y, Initial residual = 0.0309523, Final residual = 3.02577e-07, No Iterations 68
DILUPBiCGStab:  Solving for Y, Initial residual = 0.0303691, Final residual = 9.84269e-07, No Iterations 67
DILUPBiCGStab:  Solving for Y, Initial residual = 0.0309526, Final residual = 7.40063e-07, No Iterations 67
DILUPBiCGStab:  Solving for Y, Initial residual = 0.0303693, Final residual = 6.40728e-07, No Iterations 68
DILUPBiCGStab:  Solving for Y, Initial residual = 0.0309523, Final residual = 4.49296e-07, No Iterations 69
DILUPBiCGStab:  Solving for Y, Initial residual = 0.0303692, Final residual = 3.70105e-07, No Iterations 68
DILUPBiCGStab:  Solving for Y, Initial residual = 0.030952, Final residual = 3.51973e-07, No Iterations 68
DILUPBiCGStab:  Solving for Y, Initial residual = 0.0303691, Final residual = 7.98582e-07, No Iterations 68
DILUPBiCGStab:  Solving for Y, Initial residual = 0.0309524, Final residual = 9.05885e-07, No Iterations 68
DILUPBiCGStab:  Solving for Y, Initial residual = 0.0303694, Final residual = 4.14134e-07, No Iterations 68
DILUPBiCGStab:  Solving for Y, Initial residual = 0.030952, Final residual = 4.15781e-07, No Iterations 68
DILUPBiCGStab:  Solving for Ux, Initial residual = 0.0244341, Final residual = 7.82288e-08, No Iterations 2
DILUPBiCGStab:  Solving for Uy, Initial residual = 0.0251403, Final residual = 7.53738e-08, No Iterations 2
DILUPBiCGStab:  Solving for T, Initial residual = 0.00501753, Final residual = 3.07725e-07, No Iterations 2
DICPCG:  Solving for p_rgh, Initial residual = 0.183275, Final residual = 0.0017669, No Iterations 57
time step continuity errors : sum local = 0.00171629, global = 2.84186e-05, cumulative = -0.000389731
ExecutionTime = 4.59 s  ClockTime = 5 s

Time = 8

DILUPBiCGStab:  Solving for Y, Initial residual = 0.0312357, Final residual = 3.68814e-07, No Iterations 68
DILUPBiCGStab:  Solving for Y, Initial residual = 0.0309121, Final residual = 4.16957e-07, No Iterations 68
DILUPBiCGStab:  Solving for Y, Initial residual = 0.0303309, Final residual = 3.97256e-07, No Iterations 67
DILUPBiCGStab:  Solving for Y, Initial residual = 0.0309121, Final residual = 2.3335e-07, No Iterations 68
DILUPBiCGStab:  Solving for Y, Initial residual = 0.0303308, Final residual = 2.73469e-07, No Iterations 68
DILUPBiCGStab:  Solving for Y, Initial residual = 0.030912, Final residual = 3.54976e-07, No Iterations 69
DILUPBiCGStab:  Solving for Y, Initial residual = 0.0303309, Final residual = 3.1202e-07, No Iterations 68
DILUPBiCGStab:  Solving for Y, Initial residual = 0.030912, Final residual = 3.85729e-07, No Iterations 69
DILUPBiCGStab:  Solving for Y, Initial residual = 0.0303309, Final residual = 4.77993e-07, No Iterations 68
DILUPBiCGStab:  Solving for Y, Initial residual = 0.0309122, Final residual = 3.97838e-07, No Iterations 69
DILUPBiCGStab:  Solving for Y, Initial residual = 0.0303309, Final residual = 2.34432e-07, No Iterations 69
DILUPBiCGStab:  Solving for Y, Initial residual = 0.0309119, Final residual = 5.86981e-07, No Iterations 67
DILUPBiCGStab:  Solving for Y, Initial residual = 0.0303309, Final residual = 8.6152e-07, No Iterations 68
DILUPBiCGStab:  Solving for Y, Initial residual = 0.0309108, Final residual = 5.96533e-07, No Iterations 68
DILUPBiCGStab:  Solving for Y, Initial residual = 0.030331, Final residual = 7.64181e-07, No Iterations 68
DILUPBiCGStab:  Solving for Y, Initial residual = 0.0309109, Final residual = 3.49198e-07, No Iterations 69
DILUPBiCGStab:  Solving for Y, Initial residual = 0.0303309, Final residual = 3.54123e-07, No Iterations 69
DILUPBiCGStab:  Solving for Y, Initial residual = 0.0309114, Final residual = 6.66383e-07, No Iterations 68
DILUPBiCGStab:  Solving for Y, Initial residual = 0.030331, Final residual = 9.56343e-07, No Iterations 68
DILUPBiCGStab:  Solving for Y, Initial residual = 0.0309127, Final residual = 6.92498e-07, No Iterations 67
DILUPBiCGStab:  Solving for Y, Initial residual = 0.030331, Final residual = 6.17743e-07, No Iterations 68
DILUPBiCGStab:  Solving for Y, Initial residual = 0.0309123, Final residual = 7.58124e-07, No Iterations 68
DILUPBiCGStab:  Solving for Y, Initial residual = 0.0303311, Final residual = 3.24918e-07, No Iterations 67
DILUPBiCGStab:  Solving for Y, Initial residual = 0.0309117, Final residual = 5.84211e-07, No Iterations 68
DILUPBiCGStab:  Solving for Y, Initial residual = 0.030331, Final residual = 6.58724e-07, No Iterations 68
DILUPBiCGStab:  Solving for Y, Initial residual = 0.0309124, Final residual = 9.18312e-07, No Iterations 68
DILUPBiCGStab:  Solving for Y, Initial residual = 0.0303311, Final residual = 5.11528e-07, No Iterations 68
DILUPBiCGStab:  Solving for Y, Initial residual = 0.0309122, Final residual = 6.31652e-07, No Iterations 68
DILUPBiCGStab:  Solving for Y, Initial residual = 0.030331, Final residual = 5.31411e-07, No Iterations 68
DILUPBiCGStab:  Solving for Y, Initial residual = 0.0309122, Final residual = 5.53106e-07, No Iterations 68
DILUPBiCGStab:  Solving for Y, Initial residual = 0.030331, Final residual = 5.76228e-07, No Iterations 68
DILUPBiCGStab:  Solving for Y, Initial residual = 0.0309123, Final residual = 4.48662e-07, No Iterations 67
DILUPBiCGStab:  Solving for Y, Initial residual = 0.0303308, Final residual = 3.61588e-07, No Iterations 69
DILUPBiCGStab:  Solving for Y, Initial residual = 0.0309113, Final residual = 3.35855e-07, No Iterations 69
DILUPBiCGStab:  Solving for Y, Initial residual = 0.0303309, Final residual = 5.88988e-07, No Iterations 68
DILUPBiCGStab:  Solving for Y, Initial residual = 0.0309123, Final residual = 9.89015e-07, No Iterations 67
DILUPBiCGStab:  Solving for Y, Initial residual = 0.0303311, Final residual = 9.38588e-07, No Iterations 67
DILUPBiCGStab:  Solving for Y, Initial residual = 0.0309126, Final residual = 2.13878e-07, No Iterations 68
DILUPBiCGStab:  Solving for Y, Initial residual = 0.0303306, Final residual = 3.16121e-07, No Iterations 69
DILUPBiCGStab:  Solving for Y, Initial residual = 0.030912, Final residual = 5.68522e-07, No Iterations 68
DILUPBiCGStab:  Solving for Ux, Initial residual = 0.0107794, Final residual = 9.6188e-07, No Iterations 2
DILUPBiCGStab:  Solving for Uy, Initial residual = 0.00737137, Final residual = 6.19444e-07, No Iterations 2
DILUPBiCGStab:  Solving for T, Initial residual = 0.00430272, Final residual = 2.6085e-07, No Iterations 2
DICPCG:  Solving for p_rgh, Initial residual = 0.0896208, Final residual = 0.00080106, No Iterations 54
time step continuity errors : sum local = 0.00084894, global = 8.46986e-06, cumulative = -0.000381262
ExecutionTime = 5.19 s  ClockTime = 6 s

Time = 9

DILUPBiCGStab:  Solving for Y, Initial residual = 0.0310335, Final residual = 4.14306e-08, No Iterations 69
DILUPBiCGStab:  Solving for Y, Initial residual = 0.0308779, Final residual = 1.24531e-07, No Iterations 68
DILUPBiCGStab:  Solving for Y, Initial residual = 0.0302984, Final residual = 8.13382e-07, No Iterations 67
DILUPBiCGStab:  Solving for Y, Initial residual = 0.0308787, Final residual = 6.86269e-07, No Iterations 67
DILUPBiCGStab:  Solving for Y, Initial residual = 0.0302986, Final residual = 7.26721e-07, No Iterations 68
DILUPBiCGStab:  Solving for Y, Initial residual = 0.0308786, Final residual = 7.04781e-07, No Iterations 68
DILUPBiCGStab:  Solving for Y, Initial residual = 0.0302986, Final residual = 5.2048e-08, No Iterations 68
DILUPBiCGStab:  Solving for Y, Initial residual = 0.0308779, Final residual = 5.59012e-07, No Iterations 68
DILUPBiCGStab:  Solving for Y, Initial residual = 0.0302986, Final residual = 3.6995e-07, No Iterations 68
DILUPBiCGStab:  Solving for Y, Initial residual = 0.0308782, Final residual = 5.9123e-07, No Iterations 68
DILUPBiCGStab:  Solving for Y, Initial residual = 0.0302986, Final residual = 3.90463e-07, No Iterations 68
DILUPBiCGStab:  Solving for Y, Initial residual = 0.0308783, Final residual = 9.74306e-07, No Iterations 67
DILUPBiCGStab:  Solving for Y, Initial residual = 0.0302988, Final residual = 6.8838e-07, No Iterations 68
DILUPBiCGStab:  Solving for Y, Initial residual = 0.0308786, Final residual = 9.11005e-07, No Iterations 68
DILUPBiCGStab:  Solving for Y, Initial residual = 0.0302988, Final residual = 1.482e-07, No Iterations 68
DILUPBiCGStab:  Solving for Y, Initial residual = 0.030878, Final residual = 9.32059e-07, No Iterations 67
DILUPBiCGStab:  Solving for Y, Initial residual = 0.0302987, Final residual = 3.57743e-07, No Iterations 69
DILUPBiCGStab:  Solving for Y, Initial residual = 0.0308782, Final residual = 2.41268e-07, No Iterations 69
DILUPBiCGStab:  Solving for Y, Initial residual = 0.0302984, Final residual = 3.47329e-07, No Iterations 67
DILUPBiCGStab:  Solving for Y, Initial residual = 0.0308781, Final residual = 2.94614e-07, No Iterations 68
DILUPBiCGStab:  Solving for Y, Initial residual = 0.0302984, Final residual = 8.16827e-07, No Iterations 68
DILUPBiCGStab:  Solving for Y, Initial residual = 0.0308787, Final residual = 9.76753e-07, No Iterations 66
DILUPBiCGStab:  Solving for Y, Initial residual = 0.0302988, Final residual = 4.73308e-07, No Iterations 68
DILUPBiCGStab:  Solving for Y, Initial residual = 0.0308783, Final residual = 7.04213e-07, No Iterations 67
DILUPBiCGStab:  Solving for Y, Initial residual = 0.0302986, Final residual = 8.19489e-07, No Iterations 67
DILUPBiCGStab:  Solving for Y, Initial residual = 0.0308787, Final residual = 5.30896e-07, No Iterations 67
DILUPBiCGStab:  Solving for Y, Initial residual = 0.0302985, Final residual = 4.47468e-07, No Iterations 68
DILUPBiCGStab:  Solving for Y, Initial residual = 0.0308783, Final residual = 6.18805e-07, No Iterations 68
DILUPBiCGStab:  Solving for Y, Initial residual = 0.0302986, Final residual = 5.72908e-07, No Iterations 68
DILUPBiCGStab:  Solving for Y, Initial residual = 0.0308784, Final residual = 1.75078e-07, No Iterations 67
DILUPBiCGStab:  Solving for Y, Initial residual = 0.0302983, Final residual = 4.7637e-07, No Iterations 68
DILUPBiCGStab:  Solving for Y, Initial residual = 0.0308783, Final residual = 4.11606e-07, No Iterations 68
DILUPBiCGStab:  Solving for Y, Initial residual = 0.0302985, Final residual = 4.13793e-07, No Iterations 68
DILUPBiCGStab:  Solving for Y, Initial residual = 0.0308783, Final residual = 6.64222e-07, No Iterations 68
DILUPBiCGStab:  Solving for Y, Initial residual = 0.0302986, Final residual = 6.78164e-07, No Iterations 68
DILUPBiCGStab:  Solving for Y, Initial residual = 0.0308786, Final residual = 2.27464e-07, No Iterations 68
DILUPBiCGStab:  Solving for Y, Initial residual = 0.0302982, Final residual = 5.61904e-07, No Iterations 68
DILUPBiCGStab:  Solving for Y, Initial residual = 0.0308784, Final residual = 1.43293e-07, No Iterations 68
DILUPBiCGStab:  Solving for Y, Initial residual = 0.0302984, Final residual = 8.8922e-07, No Iterations 67
DILUPBiCGStab:  Solving for Y, Initial residual = 0.030877, Final residual = 1.75941e-07, No Iterations 69
DILUPBiCGStab:  Solving for Ux, Initial residual = 0.0100804, Final residual = 5.25678e-07, No Iterations 2
DILUPBiCGStab:  Solving for Uy, Initial residual = 0.00829215, Final residual = 6.62257e-07, No Iterations 2
DILUPBiCGStab:  Solving for T, Initial residual = 0.00376961, Final residual = 2.26241e-07, No Iterations 2
DICPCG:  Solving for p_rgh, Initial residual = 0.0646409, Final residual = 0.000637927, No Iterations 49
time step continuity errors : sum local = 0.000663562, global = -4.61842e-05, cumulative = -0.000427446
ExecutionTime = 5.78 s  ClockTime = 6 s

Time = 10

DILUPBiCGStab:  Solving for Y, Initial residual = 0.030885, Final residual = 5.05303e-07, No Iterations 68
DILUPBiCGStab:  Solving for Y, Initial residual = 0.0308598, Final residual = 9.32192e-07, No Iterations 68
DILUPBiCGStab:  Solving for Y, Initial residual = 0.030282, Final residual = 4.03211e-07, No Iterations 68
DILUPBiCGStab:  Solving for Y, Initial residual = 0.0308606, Final residual = 2.96848e-07, No Iterations 68
DILUPBiCGStab:  Solving for Y, Initial residual = 0.0302816, Final residual = 5.69546e-07, No Iterations 68
DILUPBiCGStab:  Solving for Y, Initial residual = 0.0308608, Final residual = 2.17102e-07, No Iterations 68
DILUPBiCGStab:  Solving for Y, Initial residual = 0.0302816, Final residual = 6.85e-07, No Iterations 68
DILUPBiCGStab:  Solving for Y, Initial residual = 0.0308609, Final residual = 2.48012e-07, No Iterations 69
DILUPBiCGStab:  Solving for Y, Initial residual = 0.0302816, Final residual = 6.2245e-07, No Iterations 68
DILUPBiCGStab:  Solving for Y, Initial residual = 0.0308608, Final residual = 7.22591e-07, No Iterations 68
DILUPBiCGStab:  Solving for Y, Initial residual = 0.0302818, Final residual = 4.14525e-07, No Iterations 68
DILUPBiCGStab:  Solving for Y, Initial residual = 0.0308606, Final residual = 6.71659e-07, No Iterations 68
DILUPBiCGStab:  Solving for Y, Initial residual = 0.0302818, Final residual = 6.06832e-07, No Iterations 69
DILUPBiCGStab:  Solving for Y, Initial residual = 0.0308596, Final residual = 3.40256e-07, No Iterations 69
DILUPBiCGStab:  Solving for Y, Initial residual = 0.0302817, Final residual = 9.91987e-07, No Iterations 66
DILUPBiCGStab:  Solving for Y, Initial residual = 0.0308612, Final residual = 3.70257e-07, No Iterations 68
DILUPBiCGStab:  Solving for Y, Initial residual = 0.0302817, Final residual = 3.37997e-07, No Iterations 69
DILUPBiCGStab:  Solving for Y, Initial residual = 0.0308606, Final residual = 9.89462e-07, No Iterations 67
DILUPBiCGStab:  Solving for Y, Initial residual = 0.030282, Final residual = 5.18156e-07, No Iterations 68
DILUPBiCGStab:  Solving for Y, Initial residual = 0.0308607, Final residual = 5.08027e-07, No Iterations 68
DILUPBiCGStab:  Solving for Y, Initial residual = 0.0302812, Final residual = 2.70724e-07, No Iterations 69
DILUPBiCGStab:  Solving for Y, Initial residual = 0.0308605, Final residual = 1.8966e-07, No Iterations 68
DILUPBiCGStab:  Solving for Y, Initial residual = 0.0302815, Final residual = 5.37027e-07, No Iterations 68
DILUPBiCGStab:  Solving for Y, Initial residual = 0.0308608, Final residual = 7.13861e-07, No Iterations 68
DILUPBiCGStab:  Solving for Y, Initial residual = 0.0302818, Final residual = 6.40941e-07, No Iterations 68
DILUPBiCGStab:  Solving for Y, Initial residual = 0.0308609, Final residual = 5.26835e-07, No Iterations 67
DILUPBiCGStab:  Solving for Y, Initial residual = 0.0302817, Final residual = 3.22666e-07, No Iterations 69
DILUPBiCGStab:  Solving for Y, Initial residual = 0.0308605, Final residual = 9.22937e-07, No Iterations 68
DILUPBiCGStab:  Solving for Y, Initial residual = 0.030282, Final residual = 1.95745e-07, No Iterations 67
DILUPBiCGStab:  Solving for Y, Initial residual = 0.0308604, Final residual = 4.4271e-07, No Iterations 67
DILUPBiCGStab:  Solving for Y, Initial residual = 0.0302817, Final residual = 2.88165e-07, No Iterations 69
DILUPBiCGStab:  Solving for Y, Initial residual = 0.0308605, Final residual = 3.1509e-07, No Iterations 69
DILUPBiCGStab:  Solving for Y, Initial residual = 0.0302817, Final residual = 6.93997e-07, No Iterations 69
DILUPBiCGStab:  Solving for Y, Initial residual = 0.0308595, Final residual = 7.34235e-07, No Iterations 68
DILUPBiCGStab:  Solving for Y, Initial residual = 0.0302819, Final residual = 2.5219e-07, No Iterations 68
DILUPBiCGStab:  Solving for Y, Initial residual = 0.0308605, Final residual = 4.92812e-07, No Iterations 68
DILUPBiCGStab:  Solving for Y, Initial residual = 0.0302817, Final residual = 5.98743e-07, No Iterations 68
DILUPBiCGStab:  Solving for Y, Initial residual = 0.0308608, Final residual = 1.99226e-07, No Iterations 69
DILUPBiCGStab:  Solving for Y, Initial residual = 0.0302816, Final residual = 5.33084e-07, No Iterations 68
DILUPBiCGStab:  Solving for Y, Initial residual = 0.0308608, Final residual = 4.87244e-07, No Iterations 68
DILUPBiCGStab:  Solving for Ux, Initial residual = 0.00815711, Final residual = 8.1428e-07, No Iterations 2
DILUPBiCGStab:  Solving for Uy, Initial residual = 0.00659956, Final residual = 5.9406e-07, No Iterations 2
DILUPBiCGStab:  Solving for T, Initial residual = 0.00335515, Final residual = 1.98434e-07, No Iterations 2
DICPCG:  Solving for p_rgh, Initial residual = 0.0506412, Final residual = 0.000466543, No Iterations 55
time step continuity errors : sum local = 0.000444826, global = 9.6805e-06, cumulative = -0.000417765
ExecutionTime = 6.39 s  ClockTime = 7 s

Time = 11

DILUPBiCGStab:  Solving for Y, Initial residual = 0.0308346, Final residual = 9.83828e-07, No Iterations 67
DILUPBiCGStab:  Solving for Y, Initial residual = 0.0308314, Final residual = 4.29052e-07, No Iterations 68
DILUPBiCGStab:  Solving for Y, Initial residual = 0.0302533, Final residual = 8.17588e-07, No Iterations 68
DILUPBiCGStab:  Solving for Y, Initial residual = 0.0308314, Final residual = 2.70869e-07, No Iterations 68
DILUPBiCGStab:  Solving for Y, Initial residual = 0.0302532, Final residual = 2.59402e-07, No Iterations 68
DILUPBiCGStab:  Solving for Y, Initial residual = 0.0308308, Final residual = 3.73733e-07, No Iterations 68
DILUPBiCGStab:  Solving for Y, Initial residual = 0.0302533, Final residual = 7.05835e-07, No Iterations 68
DILUPBiCGStab:  Solving for Y, Initial residual = 0.0308312, Final residual = 5.74588e-07, No Iterations 68
DILUPBiCGStab:  Solving for Y, Initial residual = 0.0302534, Final residual = 7.00305e-07, No Iterations 68
DILUPBiCGStab:  Solving for Y, Initial residual = 0.0308312, Final residual = 5.2671e-07, No Iterations 68
DILUPBiCGStab:  Solving for Y, Initial residual = 0.0302533, Final residual = 9.43729e-07, No Iterations 68
DILUPBiCGStab:  Solving for Y, Initial residual = 0.0308315, Final residual = 2.31409e-07, No Iterations 69
DILUPBiCGStab:  Solving for Y, Initial residual = 0.0302532, Final residual = 5.71876e-07, No Iterations 68
DILUPBiCGStab:  Solving for Y, Initial residual = 0.0308311, Final residual = 4.08194e-07, No Iterations 68
DILUPBiCGStab:  Solving for Y, Initial residual = 0.0302533, Final residual = 3.19309e-07, No Iterations 68
DILUPBiCGStab:  Solving for Y, Initial residual = 0.0308308, Final residual = 1.45331e-07, No Iterations 68
DILUPBiCGStab:  Solving for Y, Initial residual = 0.0302531, Final residual = 4.6773e-07, No Iterations 68
DILUPBiCGStab:  Solving for Y, Initial residual = 0.030831, Final residual = 9.84862e-07, No Iterations 68
DILUPBiCGStab:  Solving for Y, Initial residual = 0.0302536, Final residual = 3.94372e-07, No Iterations 69
DILUPBiCGStab:  Solving for Y, Initial residual = 0.0308309, Final residual = 5.1866e-07, No Iterations 68
DILUPBiCGStab:  Solving for Y, Initial residual = 0.0302533, Final residual = 3.34164e-07, No Iterations 69
DILUPBiCGStab:  Solving for Y, Initial residual = 0.0308309, Final residual = 4.3829e-07, No Iterations 68
DILUPBiCGStab:  Solving for Y, Initial residual = 0.0302533, Final residual = 4.1255e-07, No Iterations 68
DILUPBiCGStab:  Solving for Y, Initial residual = 0.0308309, Final residual = 3.89738e-07, No Iterations 67
DILUPBiCGStab:  Solving for Y, Initial residual = 0.0302532, Final residual = 2.40316e-07, No Iterations 67
DILUPBiCGStab:  Solving for Y, Initial residual = 0.0308308, Final residual = 4.13555e-07, No Iterations 68
DILUPBiCGStab:  Solving for Y, Initial residual = 0.0302533, Final residual = 5.82032e-07, No Iterations 68
DILUPBiCGStab:  Solving for Y, Initial residual = 0.0308311, Final residual = 5.12598e-07, No Iterations 68
DILUPBiCGStab:  Solving for Y, Initial residual = 0.0302533, Final residual = 4.73641e-07, No Iterations 68
DILUPBiCGStab:  Solving for Y, Initial residual = 0.030831, Final residual = 4.63221e-07, No Iterations 68
DILUPBiCGStab:  Solving for Y, Initial residual = 0.0302533, Final residual = 4.74373e-07, No Iterations 68
DILUPBiCGStab:  Solving for Y, Initial residual = 0.030831, Final residual = 1.74491e-07, No Iterations 68
DILUPBiCGStab:  Solving for Y, Initial residual = 0.030253, Final residual = 5.35088e-07, No Iterations 67
DILUPBiCGStab:  Solving for Y, Initial residual = 0.0308311, Final residual = 7.7987e-07, No Iterations 68
DILUPBiCGStab:  Solving for Y, Initial residual = 0.0302535, Final residual = 2.72932e-07, No Iterations 68
DILUPBiCGStab:  Solving for Y, Initial residual = 0.0308303, Final residual = 6.92155e-07, No Iterations 68
DILUPBiCGStab:  Solving for Y, Initial residual = 0.0302527, Final residual = 4.27305e-07, No Iterations 68
DILUPBiCGStab:  Solving for Y, Initial residual = 0.030831, Final residual = 4.78546e-07, No Iterations 69
DILUPBiCGStab:  Solving for Y, Initial residual = 0.0302533, Final residual = 5.49096e-07, No Iterations 68
DILUPBiCGStab:  Solving for Y, Initial residual = 0.0308311, Final residual = 5.39981e-07, No Iterations 67
DILUPBiCGStab:  Solving for Ux, Initial residual = 0.00735629, Final residual = 4.44888e-07, No Iterations 2
DILUPBiCGStab:  Solving for Uy, Initial residual = 0.00524439, Final residual = 3.8049e-07, No Iterations 2
DILUPBiCGStab:  Solving for T, Initial residual = 0.00302402, Final residual = 1.76889e-07, No Iterations 2
DICPCG:  Solving for p_rgh, Initial residual = 0.0386459, Final residual = 0.000378372, No Iterations 28
time step continuity errors : sum local = 0.000332337, global = -3.35453e-05, cumulative = -0.00045131
ExecutionTime = 6.99 s  ClockTime = 7 s

Time = 12

DILUPBiCGStab:  Solving for Y, Initial residual = 0.0307651, Final residual = 6.92877e-07, No Iterations 69
DILUPBiCGStab:  Solving for Y, Initial residual = 0.0308016, Final residual = 9.28253e-07, No Iterations 68
DILUPBiCGStab:  Solving for Y, Initial residual = 0.0302253, Final residual = 6.44565e-07, No Iterations 68
DILUPBiCGStab:  Solving for Y, Initial residual = 0.0308016, Final residual = 1.47344e-07, No Iterations 68
DILUPBiCGStab:  Solving for Y, Initial residual = 0.0302249, Final residual = 7.73647e-07, No Iterations 66
DILUPBiCGStab:  Solving for Y, Initial residual = 0.0308017, Final residual = 9.00951e-07, No Iterations 68
DILUPBiCGStab:  Solving for Y, Initial residual = 0.0302252, Final residual = 3.93691e-07, No Iterations 69
DILUPBiCGStab:  Solving for Y, Initial residual = 0.0308014, Final residual = 3.30683e-07, No Iterations 68
DILUPBiCGStab:  Solving for Y, Initial residual = 0.030225, Final residual = 2.15305e-07, No Iterations 68
DILUPBiCGStab:  Solving for Y, Initial residual = 0.0308009, Final residual = 3.12458e-07, No Iterations 69
DILUPBiCGStab:  Solving for Y, Initial residual = 0.030225, Final residual = 5.09626e-07, No Iterations 68
DILUPBiCGStab:  Solving for Y, Initial residual = 0.0308015, Final residual = 1.83264e-07, No Iterations 68
DILUPBiCGStab:  Solving for Y, Initial residual = 0.0302247, Final residual = 8.35457e-07, No Iterations 67
DILUPBiCGStab:  Solving for Y, Initial residual = 0.0308018, Final residual = 1.73549e-07, No Iterations 69
DILUPBiCGStab:  Solving for Y, Initial residual = 0.0302249, Final residual = 2.75606e-07, No Iterations 68
DILUPBiCGStab:  Solving for Y, Initial residual = 0.0308013, Final residual = 2.76332e-07, No Iterations 68
DILUPBiCGStab:  Solving for Y, Initial residual = 0.0302249, Final residual = 3.82692e-07, No Iterations 69
DILUPBiCGStab:  Solving for Y, Initial residual = 0.0308014, Final residual = 7.1242e-07, No Iterations 68
DILUPBiCGStab:  Solving for Y, Initial residual = 0.0302245, Final residual = 3.25543e-07, No Iterations 68
DILUPBiCGStab:  Solving for Y, Initial residual = 0.0308013, Final residual = 3.62659e-07, No Iterations 68
DILUPBiCGStab:  Solving for Y, Initial residual = 0.030225, Final residual = 1.97556e-07, No Iterations 68
DILUPBiCGStab:  Solving for Y, Initial residual = 0.0308009, Final residual = 3.65555e-07, No Iterations 68
DILUPBiCGStab:  Solving for Y, Initial residual = 0.030225, Final residual = 4.82816e-07, No Iterations 68
DILUPBiCGStab:  Solving for Y, Initial residual = 0.0308015, Final residual = 4.93804e-07, No Iterations 68
DILUPBiCGStab:  Solving for Y, Initial residual = 0.030225, Final residual = 3.31853e-07, No Iterations 68
DILUPBiCGStab:  Solving for Y, Initial residual = 0.0308013, Final residual = 3.57108e-07, No Iterations 68
DILUPBiCGStab:  Solving for Y, Initial residual = 0.030225, Final residual = 4.32516e-07, No Iterations 68
DILUPBiCGStab:  Solving for Y, Initial residual = 0.0308014, Final residual = 6.48304e-07, No Iterations 67
DILUPBiCGStab:  Solving for Y, Initial residual = 0.0302251, Final residual = 5.30385e-07, No Iterations 68
DILUPBiCGStab:  Solving for Y, Initial residual = 0.0308015, Final residual = 4.29251e-07, No Iterations 69
DILUPBiCGStab:  Solving for Y, Initial residual = 0.030225, Final residual = 4.38608e-07, No Iterations 68
DILUPBiCGStab:  Solving for Y, Initial residual = 0.0308014, Final residual = 7.82313e-07, No Iterations 67
DILUPBiCGStab:  Solving for Y, Initial residual = 0.0302252, Final residual = 3.68268e-07, No Iterations 68
DILUPBiCGStab:  Solving for Y, Initial residual = 0.0308014, Final residual = 7.20537e-07, No Iterations 68
DILUPBiCGStab:  Solving for Y, Initial residual = 0.0302252, Final residual = 3.41004e-07, No Iterations 69
DILUPBiCGStab:  Solving for Y, Initial residual = 0.0308013, Final residual = 5.42207e-07, No Iterations 68
DILUPBiCGStab:  Solving for Y, Initial residual = 0.0302251, Final residual = 8.72147e-07, No Iterations 68
DILUPBiCGStab:  Solving for Y, Initial residual = 0.0308019, Final residual = 9.2539e-08, No Iterations 69
DILUPBiCGStab:  Solving for Y, Initial residual = 0.0302249, Final residual = 3.74528e-07, No Iterations 67
DILUPBiCGStab:  Solving for Y, Initial residual = 0.0308014, Final residual = 8.41968e-07, No Iterations 68
DILUPBiCGStab:  Solving for Ux, Initial residual = 0.00742548, Final residual = 4.93131e-07, No Iterations 2
DILUPBiCGStab:  Solving for Uy, Initial residual = 0.00478121, Final residual = 3.45959e-07, No Iterations 2
DILUPBiCGStab:  Solving for T, Initial residual = 0.00275334, Final residual = 1.601e-07, No Iterations 2
DICPCG:  Solving for p_rgh, Initial residual = 0.0304403, Final residual = 0.000292816, No Iterations 37
time step continuity errors : sum local = 0.000255178, global = 6.22197e-05, cumulative = -0.000389091
ExecutionTime = 7.59 s  ClockTime = 8 s

Time = 13

DILUPBiCGStab:  Solving for Y, Initial residual = 0.0307076, Final residual = 9.13525e-07, No Iterations 66
DILUPBiCGStab:  Solving for Y, Initial residual = 0.0307729, Final residual = 8.14507e-07, No Iterations 66
DILUPBiCGStab:  Solving for Y, Initial residual = 0.0301977, Final residual = 4.71475e-07, No Iterations 68
DILUPBiCGStab:  Solving for Y, Initial residual = 0.0307727, Final residual = 3.98727e-07, No Iterations 68
DILUPBiCGStab:  Solving for Y, Initial residual = 0.030197, Final residual = 1.76149e-07, No Iterations 68
DILUPBiCGStab:  Solving for Y, Initial residual = 0.030772, Final residual = 4.02386e-07, No Iterations 69
DILUPBiCGStab:  Solving for Y, Initial residual = 0.0301974, Final residual = 6.87878e-07, No Iterations 68
DILUPBiCGStab:  Solving for Y, Initial residual = 0.0307729, Final residual = 4.46488e-07, No Iterations 68
DILUPBiCGStab:  Solving for Y, Initial residual = 0.0301974, Final residual = 2.00794e-07, No Iterations 69
DILUPBiCGStab:  Solving for Y, Initial residual = 0.0307724, Final residual = 3.86763e-07, No Iterations 67
DILUPBiCGStab:  Solving for Y, Initial residual = 0.0301973, Final residual = 4.24511e-07, No Iterations 68
DILUPBiCGStab:  Solving for Y, Initial residual = 0.0307726, Final residual = 2.77251e-07, No Iterations 69
DILUPBiCGStab:  Solving for Y, Initial residual = 0.0301974, Final residual = 2.76769e-07, No Iterations 69
DILUPBiCGStab:  Solving for Y, Initial residual = 0.0307725, Final residual = 8.60107e-07, No Iterations 68
DILUPBiCGStab:  Solving for Y, Initial residual = 0.0301977, Final residual = 5.6364e-07, No Iterations 68
DILUPBiCGStab:  Solving for Y, Initial residual = 0.0307728, Final residual = 2.7429e-07, No Iterations 69
DILUPBiCGStab:  Solving for Y, Initial residual = 0.0301974, Final residual = 1.83649e-07, No Iterations 68
DILUPBiCGStab:  Solving for Y, Initial residual = 0.0307724, Final residual = 2.13449e-07, No Iterations 68
DILUPBiCGStab:  Solving for Y, Initial residual = 0.0301972, Final residual = 1.50311e-07, No Iterations 69
DILUPBiCGStab:  Solving for Y, Initial residual = 0.0307723, Final residual = 4.18046e-07, No Iterations 68
DILUPBiCGStab:  Solving for Y, Initial residual = 0.0301974, Final residual = 4.08278e-07, No Iterations 68
DILUPBiCGStab:  Solving for Y, Initial residual = 0.0307726, Final residual = 7.83607e-07, No Iterations 68
DILUPBiCGStab:  Solving for Y, Initial residual = 0.0301976, Final residual = 7.13248e-07, No Iterations 67
DILUPBiCGStab:  Solving for Y, Initial residual = 0.0307729, Final residual = 9.77731e-07, No Iterations 66
DILUPBiCGStab:  Solving for Y, Initial residual = 0.0301975, Final residual = 3.72805e-07, No Iterations 68
DILUPBiCGStab:  Solving for Y, Initial residual = 0.0307719, Final residual = 7.695e-07, No Iterations 67
DILUPBiCGStab:  Solving for Y, Initial residual = 0.0301976, Final residual = 6.48564e-07, No Iterations 68
DILUPBiCGStab:  Solving for Y, Initial residual = 0.0307728, Final residual = 6.59177e-07, No Iterations 68
DILUPBiCGStab:  Solving for Y, Initial residual = 0.0301976, Final residual = 8.20203e-07, No Iterations 67
DILUPBiCGStab:  Solving for Y, Initial residual = 0.030773, Final residual = 5.77276e-07, No Iterations 68
DILUPBiCGStab:  Solving for Y, Initial residual = 0.0301975, Final residual = 3.13542e-07, No Iterations 69
DILUPBiCGStab:  Solving for Y, Initial residual = 0.0307725, Final residual = 9.59457e-07, No Iterations 67
DILUPBiCGStab:  Solving for Y, Initial residual = 0.0301977, Final residual = 7.1053e-07, No Iterations 67
DILUPBiCGStab:  Solving for Y, Initial residual = 0.0307729, Final residual = 9.84844e-07, No Iterations 67
DILUPBiCGStab:  Solving for Y, Initial residual = 0.0301977, Final residual = 9.39863e-07, No Iterations 67
DILUPBiCGStab:  Solving for Y, Initial residual = 0.0307731, Final residual = 5.53833e-07, No Iterations 68
DILUPBiCGStab:  Solving for Y, Initial residual = 0.0301975, Final residual = 3.80906e-07, No Iterations 68
DILUPBiCGStab:  Solving for Y, Initial residual = 0.0307726, Final residual = 3.64087e-07, No Iterations 68
DILUPBiCGStab:  Solving for Y, Initial residual = 0.0301974, Final residual = 5.04675e-07, No Iterations 68
DILUPBiCGStab:  Solving for Y, Initial residual = 0.0307727, Final residual = 2.635e-07, No Iterations 68
DILUPBiCGStab:  Solving for Ux, Initial residual = 0.00725298, Final residual = 4.849e-07, No Iterations 2
DILUPBiCGStab:  Solving for Uy, Initial residual = 0.00437042, Final residual = 3.11269e-07, No Iterations 2
DILUPBiCGStab:  Solving for T, Initial residual = 0.00252785, Final residual = 1.46448e-07, No Iterations 2
DICPCG:  Solving for p_rgh, Initial residual = 0.0249952, Final residual = 0.000232075, No Iterations 46
time step continuity errors : sum local = 0.000200904, global = -3.10152e-06, cumulative = -0.000392192
ExecutionTime = 8.18 s  ClockTime = 9 s

Time = 14

DILUPBiCGStab:  Solving for Y, Initial residual = 0.0306366, Final residual = 5.35798e-08, No Iterations 68
DILUPBiCGStab:  Solving for Y, Initial residual = 0.0307485, Final residual = 5.63337e-07, No Iterations 68
DILUPBiCGStab:  Solving for Y, Initial residual = 0.0301748, Final residual = 3.3382e-07, No Iterations 68
DILUPBiCGStab:  Solving for Y, Initial residual = 0.0307488, Final residual = 7.23946e-07, No Iterations 68
DILUPBiCGStab:  Solving for Y, Initial residual = 0.0301749, Final residual = 3.98558e-07, No Iterations 68
DILUPBiCGStab:  Solving for Y, Initial residual = 0.0307488, Final residual = 2.76766e-07, No Iterations 69
DILUPBiCGStab:  Solving for Y, Initial residual = 0.0301747, Final residual = 3.53404e-07, No Iterations 68
DILUPBiCGStab:  Solving for Y, Initial residual = 0.0307488, Final residual = 5.83361e-07, No Iterations 68
DILUPBiCGStab:  Solving for Y, Initial residual = 0.0301742, Final residual = 8.80352e-07, No Iterations 68
DILUPBiCGStab:  Solving for Y, Initial residual = 0.0307493, Final residual = 6.50887e-07, No Iterations 68
DILUPBiCGStab:  Solving for Y, Initial residual = 0.0301748, Final residual = 4.32012e-07, No Iterations 68
DILUPBiCGStab:  Solving for Y, Initial residual = 0.0307489, Final residual = 1.77993e-07, No Iterations 68
DILUPBiCGStab:  Solving for Y, Initial residual = 0.0301746, Final residual = 2.01292e-07, No Iterations 69
DILUPBiCGStab:  Solving for Y, Initial residual = 0.0307487, Final residual = 2.71427e-07, No Iterations 69
DILUPBiCGStab:  Solving for Y, Initial residual = 0.0301744, Final residual = 9.85846e-07, No Iterations 68
DILUPBiCGStab:  Solving for Y, Initial residual = 0.0307494, Final residual = 5.9509e-07, No Iterations 68
DILUPBiCGStab:  Solving for Y, Initial residual = 0.0301742, Final residual = 2.5893e-07, No Iterations 68
DILUPBiCGStab:  Solving for Y, Initial residual = 0.0307487, Final residual = 3.85086e-07, No Iterations 68
DILUPBiCGStab:  Solving for Y, Initial residual = 0.0301747, Final residual = 1.27265e-07, No Iterations 68
DILUPBiCGStab:  Solving for Y, Initial residual = 0.0307486, Final residual = 6.77891e-07, No Iterations 68
DILUPBiCGStab:  Solving for Y, Initial residual = 0.0301749, Final residual = 3.24439e-07, No Iterations 68
DILUPBiCGStab:  Solving for Y, Initial residual = 0.0307488, Final residual = 2.31193e-07, No Iterations 68
DILUPBiCGStab:  Solving for Y, Initial residual = 0.0301746, Final residual = 3.39306e-07, No Iterations 68
DILUPBiCGStab:  Solving for Y, Initial residual = 0.0307488, Final residual = 7.5903e-07, No Iterations 68
DILUPBiCGStab:  Solving for Y, Initial residual = 0.0301749, Final residual = 7.61129e-07, No Iterations 68
DILUPBiCGStab:  Solving for Y, Initial residual = 0.0307492, Final residual = 4.3243e-07, No Iterations 68
DILUPBiCGStab:  Solving for Y, Initial residual = 0.0301747, Final residual = 4.08249e-07, No Iterations 68
DILUPBiCGStab:  Solving for Y, Initial residual = 0.0307489, Final residual = 4.68806e-07, No Iterations 66
DILUPBiCGStab:  Solving for Y, Initial residual = 0.0301747, Final residual = 1.86638e-07, No Iterations 68
DILUPBiCGStab:  Solving for Y, Initial residual = 0.0307486, Final residual = 2.53552e-07, No Iterations 69
DILUPBiCGStab:  Solving for Y, Initial residual = 0.0301746, Final residual = 4.99902e-07, No Iterations 68
DILUPBiCGStab:  Solving for Y, Initial residual = 0.030749, Final residual = 4.9971e-07, No Iterations 68
DILUPBiCGStab:  Solving for Y, Initial residual = 0.0301748, Final residual = 7.42296e-07, No Iterations 68
DILUPBiCGStab:  Solving for Y, Initial residual = 0.0307492, Final residual = 3.57723e-07, No Iterations 68
DILUPBiCGStab:  Solving for Y, Initial residual = 0.0301747, Final residual = 3.37787e-07, No Iterations 68
DILUPBiCGStab:  Solving for Y, Initial residual = 0.0307488, Final residual = 7.72049e-07, No Iterations 67
DILUPBiCGStab:  Solving for Y, Initial residual = 0.0301749, Final residual = 8.53334e-07, No Iterations 68
DILUPBiCGStab:  Solving for Y, Initial residual = 0.0307493, Final residual = 1.45051e-07, No Iterations 68
DILUPBiCGStab:  Solving for Y, Initial residual = 0.0301745, Final residual = 9.10698e-07, No Iterations 67
DILUPBiCGStab:  Solving for Y, Initial residual = 0.0307494, Final residual = 7.86162e-07, No Iterations 68
DILUPBiCGStab:  Solving for Ux, Initial residual = 0.00717053, Final residual = 4.44863e-07, No Iterations 2
DILUPBiCGStab:  Solving for Uy, Initial residual = 0.00431127, Final residual = 3.04036e-07, No Iterations 2
DILUPBiCGStab:  Solving for T, Initial residual = 0.00233717, Final residual = 1.35165e-07, No Iterations 2
DICPCG:  Solving for p_rgh, Initial residual = 0.0214102, Final residual = 0.000204661, No Iterations 24
time step continuity errors : sum local = 0.000177313, global = -6.62669e-06, cumulative = -0.000398819
ExecutionTime = 8.78 s  ClockTime = 9 s

Time = 15

DILUPBiCGStab:  Solving for Y, Initial residual = 0.0305881, Final residual = 9.87339e-07, No Iterations 66
DILUPBiCGStab:  Solving for Y, Initial residual = 0.0307243, Final residual = 4.71578e-07, No Iterations 68
DILUPBiCGStab:  Solving for Y, Initial residual = 0.0301512, Final residual = 8.41357e-07, No Iterations 68
DILUPBiCGStab:  Solving for Y, Initial residual = 0.0307247, Final residual = 4.36662e-07, No Iterations 68
DILUPBiCGStab:  Solving for Y, Initial residual = 0.0301512, Final residual = 9.03641e-07, No Iterations 68
DILUPBiCGStab:  Solving for Y, Initial residual = 0.0307247, Final residual = 5.58723e-07, No Iterations 67
DILUPBiCGStab:  Solving for Y, Initial residual = 0.0301512, Final residual = 9.63054e-07, No Iterations 68
DILUPBiCGStab:  Solving for Y, Initial residual = 0.0307228, Final residual = 3.78597e-07, No Iterations 68
DILUPBiCGStab:  Solving for Y, Initial residual = 0.0301508, Final residual = 5.09811e-07, No Iterations 68
DILUPBiCGStab:  Solving for Y, Initial residual = 0.0307243, Final residual = 5.36353e-07, No Iterations 68
DILUPBiCGStab:  Solving for Y, Initial residual = 0.0301512, Final residual = 8.99257e-07, No Iterations 68
DILUPBiCGStab:  Solving for Y, Initial residual = 0.0307247, Final residual = 1.01359e-07, No Iterations 67
DILUPBiCGStab:  Solving for Y, Initial residual = 0.030151, Final residual = 4.03395e-07, No Iterations 68
DILUPBiCGStab:  Solving for Y, Initial residual = 0.0307242, Final residual = 2.06505e-07, No Iterations 67
DILUPBiCGStab:  Solving for Y, Initial residual = 0.030151, Final residual = 8.38385e-07, No Iterations 68
DILUPBiCGStab:  Solving for Y, Initial residual = 0.0307247, Final residual = 8.28934e-07, No Iterations 67
DILUPBiCGStab:  Solving for Y, Initial residual = 0.0301513, Final residual = 2.5446e-07, No Iterations 69
DILUPBiCGStab:  Solving for Y, Initial residual = 0.0307241, Final residual = 4.39279e-07, No Iterations 68
DILUPBiCGStab:  Solving for Y, Initial residual = 0.0301507, Final residual = 6.737e-07, No Iterations 68
DILUPBiCGStab:  Solving for Y, Initial residual = 0.0307245, Final residual = 9.77938e-07, No Iterations 68
DILUPBiCGStab:  Solving for Y, Initial residual = 0.0301514, Final residual = 3.64634e-07, No Iterations 68
DILUPBiCGStab:  Solving for Y, Initial residual = 0.0307242, Final residual = 3.58662e-07, No Iterations 68
DILUPBiCGStab:  Solving for Y, Initial residual = 0.0301511, Final residual = 2.82315e-07, No Iterations 68
DILUPBiCGStab:  Solving for Y, Initial residual = 0.0307241, Final residual = 9.94129e-07, No Iterations 68
DILUPBiCGStab:  Solving for Y, Initial residual = 0.0301515, Final residual = 4.18826e-07, No Iterations 68
DILUPBiCGStab:  Solving for Y, Initial residual = 0.0307242, Final residual = 6.67046e-07, No Iterations 68
DILUPBiCGStab:  Solving for Y, Initial residual = 0.0301513, Final residual = 3.92086e-07, No Iterations 68
DILUPBiCGStab:  Solving for Y, Initial residual = 0.0307242, Final residual = 9.83333e-07, No Iterations 65
DILUPBiCGStab:  Solving for Y, Initial residual = 0.0301515, Final residual = 4.46329e-07, No Iterations 68
DILUPBiCGStab:  Solving for Y, Initial residual = 0.0307243, Final residual = 5.16047e-07, No Iterations 68
DILUPBiCGStab:  Solving for Y, Initial residual = 0.0301512, Final residual = 5.88568e-07, No Iterations 68
DILUPBiCGStab:  Solving for Y, Initial residual = 0.0307244, Final residual = 4.84733e-07, No Iterations 68
DILUPBiCGStab:  Solving for Y, Initial residual = 0.0301512, Final residual = 9.99218e-07, No Iterations 67
DILUPBiCGStab:  Solving for Y, Initial residual = 0.0307248, Final residual = 2.48437e-07, No Iterations 69
DILUPBiCGStab:  Solving for Y, Initial residual = 0.0301511, Final residual = 5.86952e-07, No Iterations 67
DILUPBiCGStab:  Solving for Y, Initial residual = 0.0307244, Final residual = 4.46623e-07, No Iterations 68
DILUPBiCGStab:  Solving for Y, Initial residual = 0.0301512, Final residual = 7.43672e-07, No Iterations 68
DILUPBiCGStab:  Solving for Y, Initial residual = 0.0307246, Final residual = 9.86031e-07, No Iterations 68
DILUPBiCGStab:  Solving for Y, Initial residual = 0.0301514, Final residual = 2.23931e-07, No Iterations 68
DILUPBiCGStab:  Solving for Y, Initial residual = 0.030724, Final residual = 2.13292e-07, No Iterations 68
DILUPBiCGStab:  Solving for Ux, Initial residual = 0.00704547, Final residual = 4.23545e-07, No Iterations 2
DILUPBiCGStab:  Solving for Uy, Initial residual = 0.00419772, Final residual = 2.99268e-07, No Iterations 2
DILUPBiCGStab:  Solving for T, Initial residual = 0.00217375, Final residual = 1.25876e-07, No Iterations 2
DICPCG:  Solving for p_rgh, Initial residual = 0.0189343, Final residual = 0.000178428, No Iterations 43
time step continuity errors : sum local = 0.000152135, global = 4.79165e-06, cumulative = -0.000394027
ExecutionTime = 9.38 s  ClockTime = 10 s

Time = 16

DILUPBiCGStab:  Solving for Y, Initial residual = 0.0305435, Final residual = 9.12153e-07, No Iterations 67
DILUPBiCGStab:  Solving for Y, Initial residual = 0.0307013, Final residual = 4.30916e-07, No Iterations 68
DILUPBiCGStab:  Solving for Y, Initial residual = 0.0301288, Final residual = 4.77884e-07, No Iterations 68
DILUPBiCGStab:  Solving for Y, Initial residual = 0.0307009, Final residual = 2.08696e-07, No Iterations 69
DILUPBiCGStab:  Solving for Y, Initial residual = 0.0301287, Final residual = 3.72806e-07, No Iterations 67
DILUPBiCGStab:  Solving for Y, Initial residual = 0.0307002, Final residual = 7.41523e-07, No Iterations 68
DILUPBiCGStab:  Solving for Y, Initial residual = 0.0301289, Final residual = 4.83721e-07, No Iterations 67
DILUPBiCGStab:  Solving for Y, Initial residual = 0.0307009, Final residual = 5.8069e-07, No Iterations 68
DILUPBiCGStab:  Solving for Y, Initial residual = 0.0301288, Final residual = 2.4044e-07, No Iterations 69
DILUPBiCGStab:  Solving for Y, Initial residual = 0.0307007, Final residual = 9.10111e-07, No Iterations 67
DILUPBiCGStab:  Solving for Y, Initial residual = 0.030129, Final residual = 4.7601e-07, No Iterations 68
DILUPBiCGStab:  Solving for Y, Initial residual = 0.0307009, Final residual = 9.16505e-07, No Iterations 69
DILUPBiCGStab:  Solving for Y, Initial residual = 0.030129, Final residual = 3.76617e-07, No Iterations 68
DILUPBiCGStab:  Solving for Y, Initial residual = 0.0307001, Final residual = 1.31912e-07, No Iterations 69
DILUPBiCGStab:  Solving for Y, Initial residual = 0.0301286, Final residual = 4.64628e-07, No Iterations 67
DILUPBiCGStab:  Solving for Y, Initial residual = 0.0307008, Final residual = 3.24891e-07, No Iterations 68
DILUPBiCGStab:  Solving for Y, Initial residual = 0.0301287, Final residual = 4.34874e-07, No Iterations 68
DILUPBiCGStab:  Solving for Y, Initial residual = 0.0307009, Final residual = 3.03536e-07, No Iterations 69
DILUPBiCGStab:  Solving for Y, Initial residual = 0.0301287, Final residual = 2.82004e-07, No Iterations 69
DILUPBiCGStab:  Solving for Y, Initial residual = 0.0307007, Final residual = 4.67686e-07, No Iterations 68
DILUPBiCGStab:  Solving for Y, Initial residual = 0.0301288, Final residual = 1.49033e-07, No Iterations 68
DILUPBiCGStab:  Solving for Y, Initial residual = 0.0307006, Final residual = 8.15669e-07, No Iterations 67
DILUPBiCGStab:  Solving for Y, Initial residual = 0.0301289, Final residual = 4.86756e-07, No Iterations 68
DILUPBiCGStab:  Solving for Y, Initial residual = 0.0307009, Final residual = 3.7933e-07, No Iterations 69
DILUPBiCGStab:  Solving for Y, Initial residual = 0.0301287, Final residual = 8.56758e-07, No Iterations 67
DILUPBiCGStab:  Solving for Y, Initial residual = 0.0307013, Final residual = 4.98441e-07, No Iterations 68
DILUPBiCGStab:  Solving for Y, Initial residual = 0.0301288, Final residual = 1.22693e-07, No Iterations 68
DILUPBiCGStab:  Solving for Y, Initial residual = 0.0307004, Final residual = 4.0486e-07, No Iterations 68
DILUPBiCGStab:  Solving for Y, Initial residual = 0.0301288, Final residual = 3.10793e-07, No Iterations 68
DILUPBiCGStab:  Solving for Y, Initial residual = 0.0307008, Final residual = 5.69767e-07, No Iterations 68
DILUPBiCGStab:  Solving for Y, Initial residual = 0.0301283, Final residual = 5.42268e-07, No Iterations 68
DILUPBiCGStab:  Solving for Y, Initial residual = 0.030701, Final residual = 2.54591e-07, No Iterations 69
DILUPBiCGStab:  Solving for Y, Initial residual = 0.0301287, Final residual = 5.12855e-07, No Iterations 68
DILUPBiCGStab:  Solving for Y, Initial residual = 0.030701, Final residual = 8.81707e-07, No Iterations 67
DILUPBiCGStab:  Solving for Y, Initial residual = 0.030129, Final residual = 4.91907e-07, No Iterations 68
DILUPBiCGStab:  Solving for Y, Initial residual = 0.0307009, Final residual = 1.55484e-07, No Iterations 69
[...]
DILUPBiCGStab:  Solving for Y, Initial residual = 0.0289668, Final residual = 3.50381e-07, No Iterations 67
DILUPBiCGStab:  Solving for Y, Initial residual = 0.028465, Final residual = 6.88465e-07, No Iterations 67
DILUPBiCGStab:  Solving for Y, Initial residual = 0.0289673, Final residual = 6.60892e-07, No Iterations 67
DILUPBiCGStab:  Solving for Y, Initial residual = 0.0284648, Final residual = 1.91185e-07, No Iterations 68
DILUPBiCGStab:  Solving for Y, Initial residual = 0.0289669, Final residual = 5.96433e-07, No Iterations 67
DILUPBiCGStab:  Solving for Y, Initial residual = 0.0284654, Final residual = 7.73148e-07, No Iterations 66
DILUPBiCGStab:  Solving for Y, Initial residual = 0.0289663, Final residual = 9.35132e-07, No Iterations 67
DILUPBiCGStab:  Solving for Y, Initial residual = 0.0284655, Final residual = 8.74226e-07, No Iterations 67
DILUPBiCGStab:  Solving for Y, Initial residual = 0.0289675, Final residual = 7.75324e-07, No Iterations 67
DILUPBiCGStab:  Solving for Y, Initial residual = 0.0284655, Final residual = 6.71913e-07, No Iterations 67
DILUPBiCGStab:  Solving for Y, Initial residual = 0.0289673, Final residual = 8.01965e-07, No Iterations 67
DILUPBiCGStab:  Solving for Y, Initial residual = 0.0284655, Final residual = 5.9144e-07, No Iterations 67
DILUPBiCGStab:  Solving for Y, Initial residual = 0.0289672, Final residual = 8.66568e-07, No Iterations 67
DILUPBiCGStab:  Solving for Y, Initial residual = 0.0284655, Final residual = 8.69374e-07, No Iterations 66
DILUPBiCGStab:  Solving for Y, Initial residual = 0.0289668, Final residual = 1.88771e-07, No Iterations 68
DILUPBiCGStab:  Solving for Y, Initial residual = 0.0284652, Final residual = 1.05219e-07, No Iterations 68
DILUPBiCGStab:  Solving for Y, Initial residual = 0.0289668, Final residual = 1.33382e-07, No Iterations 68
DILUPBiCGStab:  Solving for Y, Initial residual = 0.028465, Final residual = 3.01596e-07, No Iterations 68
DILUPBiCGStab:  Solving for Y, Initial residual = 0.028967, Final residual = 6.95608e-07, No Iterations 66
DILUPBiCGStab:  Solving for Y, Initial residual = 0.0284654, Final residual = 2.32597e-07, No Iterations 67
DILUPBiCGStab:  Solving for Y, Initial residual = 0.0289666, Final residual = 7.57871e-07, No Iterations 66
DILUPBiCGStab:  Solving for Y, Initial residual = 0.0284654, Final residual = 7.14159e-07, No Iterations 67
DILUPBiCGStab:  Solving for Y, Initial residual = 0.0289674, Final residual = 5.80902e-07, No Iterations 68
DILUPBiCGStab:  Solving for Y, Initial residual = 0.0284654, Final residual = 5.29495e-07, No Iterations 67
DILUPBiCGStab:  Solving for Y, Initial residual = 0.0289672, Final residual = 7.60252e-07, No Iterations 68
DILUPBiCGStab:  Solving for Y, Initial residual = 0.0284655, Final residual = 3.99264e-07, No Iterations 67
DILUPBiCGStab:  Solving for Y, Initial residual = 0.0289671, Final residual = 8.5564e-07, No Iterations 67
DILUPBiCGStab:  Solving for Y, Initial residual = 0.0284655, Final residual = 8.66543e-07, No Iterations 66
DILUPBiCGStab:  Solving for Y, Initial residual = 0.0289675, Final residual = 3.73653e-07, No Iterations 68
DILUPBiCGStab:  Solving for Y, Initial residual = 0.0284653, Final residual = 6.85958e-07, No Iterations 67
DILUPBiCGStab:  Solving for Y, Initial residual = 0.0289673, Final residual = 3.50962e-07, No Iterations 68
DILUPBiCGStab:  Solving for Y, Initial residual = 0.0284653, Final residual = 9.32801e-07, No Iterations 67
DILUPBiCGStab:  Solving for Y, Initial residual = 0.0289676, Final residual = 5.06451e-07, No Iterations 67
DILUPBiCGStab:  Solving for Y, Initial residual = 0.0284653, Final residual = 4.17116e-07, No Iterations 67
DILUPBiCGStab:  Solving for Y, Initial residual = 0.0289671, Final residual = 9.55555e-07, No Iterations 66
DILUPBiCGStab:  Solving for Y, Initial residual = 0.0284656, Final residual = 9.93473e-07, No Iterations 67
DILUPBiCGStab:  Solving for Y, Initial residual = 0.0289676, Final residual = 6.53685e-07, No Iterations 67
DILUPBiCGStab:  Solving for Y, Initial residual = 0.0284654, Final residual = 1.91388e-07, No Iterations 69
DILUPBiCGStab:  Solving for Y, Initial residual = 0.0289668, Final residual = 8.73501e-07, No Iterations 66
DILUPBiCGStab:  Solving for Ux, Initial residual = 8.99605e-05, Final residual = 1.01962e-07, No Iterations 1
DILUPBiCGStab:  Solving for Uy, Initial residual = 5.47585e-05, Final residual = 7.05707e-08, No Iterations 1
DILUPBiCGStab:  Solving for T, Initial residual = 3.82057e-06, Final residual = 5.77627e-07, No Iterations 1
DICPCG:  Solving for p_rgh, Initial residual = 9.20803e-05, Final residual = 8.86164e-07, No Iterations 33
time step continuity errors : sum local = 6.37978e-07, global = 1.087e-07, cumulative = -0.000578436
ExecutionTime = 364.6 s  ClockTime = 367 s

Time = 598

DILUPBiCGStab:  Solving for Y, Initial residual = 0.0284657, Final residual = 5.81782e-07, No Iterations 67
DILUPBiCGStab:  Solving for Y, Initial residual = 0.0289681, Final residual = 4.39691e-08, No Iterations 68
DILUPBiCGStab:  Solving for Y, Initial residual = 0.028466, Final residual = 4.29854e-07, No Iterations 68
DILUPBiCGStab:  Solving for Y, Initial residual = 0.028968, Final residual = 3.99123e-07, No Iterations 68
DILUPBiCGStab:  Solving for Y, Initial residual = 0.0284662, Final residual = 1.18656e-07, No Iterations 68
DILUPBiCGStab:  Solving for Y, Initial residual = 0.0289677, Final residual = 2.63651e-07, No Iterations 67
DILUPBiCGStab:  Solving for Y, Initial residual = 0.0284661, Final residual = 5.24139e-07, No Iterations 67
DILUPBiCGStab:  Solving for Y, Initial residual = 0.0289681, Final residual = 7.41798e-07, No Iterations 67
DILUPBiCGStab:  Solving for Y, Initial residual = 0.0284663, Final residual = 7.7466e-07, No Iterations 67
DILUPBiCGStab:  Solving for Y, Initial residual = 0.0289683, Final residual = 2.48088e-07, No Iterations 68
DILUPBiCGStab:  Solving for Y, Initial residual = 0.0284661, Final residual = 9.9698e-07, No Iterations 66
DILUPBiCGStab:  Solving for Y, Initial residual = 0.0289685, Final residual = 3.18658e-07, No Iterations 68
DILUPBiCGStab:  Solving for Y, Initial residual = 0.0284661, Final residual = 8.75465e-07, No Iterations 66
DILUPBiCGStab:  Solving for Y, Initial residual = 0.0289682, Final residual = 6.48289e-07, No Iterations 67
DILUPBiCGStab:  Solving for Y, Initial residual = 0.0284663, Final residual = 4.69485e-08, No Iterations 68
DILUPBiCGStab:  Solving for Y, Initial residual = 0.0289676, Final residual = 3.94742e-07, No Iterations 68
DILUPBiCGStab:  Solving for Y, Initial residual = 0.0284662, Final residual = 5.60871e-07, No Iterations 67
DILUPBiCGStab:  Solving for Y, Initial residual = 0.0289681, Final residual = 9.99094e-07, No Iterations 66
DILUPBiCGStab:  Solving for Y, Initial residual = 0.0284664, Final residual = 6.55816e-07, No Iterations 67
DILUPBiCGStab:  Solving for Y, Initial residual = 0.0289682, Final residual = 7.3819e-07, No Iterations 67
DILUPBiCGStab:  Solving for Y, Initial residual = 0.0284663, Final residual = 7.95577e-07, No Iterations 67
DILUPBiCGStab:  Solving for Y, Initial residual = 0.0289683, Final residual = 7.69483e-08, No Iterations 68
DILUPBiCGStab:  Solving for Y, Initial residual = 0.028466, Final residual = 8.42505e-07, No Iterations 67
DILUPBiCGStab:  Solving for Y, Initial residual = 0.0289684, Final residual = 2.73667e-07, No Iterations 67
DILUPBiCGStab:  Solving for Y, Initial residual = 0.0284659, Final residual = 6.15044e-07, No Iterations 67
DILUPBiCGStab:  Solving for Y, Initial residual = 0.0289682, Final residual = 3.66259e-07, No Iterations 68
DILUPBiCGStab:  Solving for Y, Initial residual = 0.0284662, Final residual = 2.27974e-07, No Iterations 68
DILUPBiCGStab:  Solving for Y, Initial residual = 0.0289678, Final residual = 5.98477e-07, No Iterations 67
DILUPBiCGStab:  Solving for Y, Initial residual = 0.0284663, Final residual = 1.08878e-07, No Iterations 68
DILUPBiCGStab:  Solving for Y, Initial residual = 0.0289677, Final residual = 6.29179e-07, No Iterations 67
DILUPBiCGStab:  Solving for Y, Initial residual = 0.0284663, Final residual = 7.70347e-07, No Iterations 67
DILUPBiCGStab:  Solving for Y, Initial residual = 0.0289683, Final residual = 8.08226e-07, No Iterations 67
DILUPBiCGStab:  Solving for Y, Initial residual = 0.0284664, Final residual = 8.63142e-07, No Iterations 67
DILUPBiCGStab:  Solving for Y, Initial residual = 0.0289668, Final residual = 7.81225e-07, No Iterations 67
DILUPBiCGStab:  Solving for Y, Initial residual = 0.0284656, Final residual = 1.66923e-07, No Iterations 68
DILUPBiCGStab:  Solving for Y, Initial residual = 0.0289674, Final residual = 6.35187e-07, No Iterations 67
DILUPBiCGStab:  Solving for Y, Initial residual = 0.0284663, Final residual = 9.37338e-07, No Iterations 67
DILUPBiCGStab:  Solving for Y, Initial residual = 0.0289685, Final residual = 6.32016e-07, No Iterations 66
DILUPBiCGStab:  Solving for Y, Initial residual = 0.0284662, Final residual = 8.12514e-07, No Iterations 67
DILUPBiCGStab:  Solving for Y, Initial residual = 0.0289684, Final residual = 9.1613e-07, No Iterations 67
DILUPBiCGStab:  Solving for Ux, Initial residual = 8.94295e-05, Final residual = 1.01464e-07, No Iterations 1
DILUPBiCGStab:  Solving for Uy, Initial residual = 5.44643e-05, Final residual = 7.01828e-08, No Iterations 1
DILUPBiCGStab:  Solving for T, Initial residual = 3.79138e-06, Final residual = 5.7273e-07, No Iterations 1
DICPCG:  Solving for p_rgh, Initial residual = 9.12761e-05, Final residual = 8.80521e-07, No Iterations 33
time step continuity errors : sum local = 6.33876e-07, global = 1.07751e-07, cumulative = -0.000578328
ExecutionTime = 365.2 s  ClockTime = 367 s

Time = 599

DILUPBiCGStab:  Solving for Y, Initial residual = 0.0284671, Final residual = 6.89583e-07, No Iterations 67
DILUPBiCGStab:  Solving for Y, Initial residual = 0.0289691, Final residual = 1.68435e-07, No Iterations 68
DILUPBiCGStab:  Solving for Y, Initial residual = 0.0284669, Final residual = 4.05787e-07, No Iterations 68
DILUPBiCGStab:  Solving for Y, Initial residual = 0.0289689, Final residual = 4.76279e-07, No Iterations 68
DILUPBiCGStab:  Solving for Y, Initial residual = 0.0284671, Final residual = 7.47267e-07, No Iterations 67
DILUPBiCGStab:  Solving for Y, Initial residual = 0.0289692, Final residual = 3.86979e-07, No Iterations 67
DILUPBiCGStab:  Solving for Y, Initial residual = 0.0284667, Final residual = 8.22865e-07, No Iterations 67
DILUPBiCGStab:  Solving for Y, Initial residual = 0.0289693, Final residual = 7.48276e-07, No Iterations 67
DILUPBiCGStab:  Solving for Y, Initial residual = 0.0284672, Final residual = 7.16706e-07, No Iterations 67
DILUPBiCGStab:  Solving for Y, Initial residual = 0.0289678, Final residual = 7.82242e-07, No Iterations 66
DILUPBiCGStab:  Solving for Y, Initial residual = 0.0284672, Final residual = 4.27456e-07, No Iterations 68
DILUPBiCGStab:  Solving for Y, Initial residual = 0.0289689, Final residual = 7.97778e-07, No Iterations 67
DILUPBiCGStab:  Solving for Y, Initial residual = 0.0284672, Final residual = 6.54397e-07, No Iterations 67
DILUPBiCGStab:  Solving for Y, Initial residual = 0.0289691, Final residual = 3.46833e-07, No Iterations 68
DILUPBiCGStab:  Solving for Y, Initial residual = 0.028467, Final residual = 7.93817e-07, No Iterations 67
DILUPBiCGStab:  Solving for Y, Initial residual = 0.0289692, Final residual = 8.1285e-07, No Iterations 67
DILUPBiCGStab:  Solving for Y, Initial residual = 0.0284672, Final residual = 3.31235e-07, No Iterations 68
DILUPBiCGStab:  Solving for Y, Initial residual = 0.0289688, Final residual = 5.3935e-07, No Iterations 68
DILUPBiCGStab:  Solving for Y, Initial residual = 0.0284671, Final residual = 8.57894e-07, No Iterations 67
DILUPBiCGStab:  Solving for Y, Initial residual = 0.0289693, Final residual = 4.47266e-07, No Iterations 67
DILUPBiCGStab:  Solving for Y, Initial residual = 0.0284667, Final residual = 7.13495e-07, No Iterations 66
DILUPBiCGStab:  Solving for Y, Initial residual = 0.0289691, Final residual = 8.44271e-07, No Iterations 68
DILUPBiCGStab:  Solving for Y, Initial residual = 0.0284673, Final residual = 8.04565e-07, No Iterations 67
DILUPBiCGStab:  Solving for Y, Initial residual = 0.0289693, Final residual = 7.88751e-07, No Iterations 67
DILUPBiCGStab:  Solving for Y, Initial residual = 0.0284672, Final residual = 5.27564e-07, No Iterations 68
DILUPBiCGStab:  Solving for Y, Initial residual = 0.028969, Final residual = 9.04098e-07, No Iterations 67
DILUPBiCGStab:  Solving for Y, Initial residual = 0.0284673, Final residual = 2.1395e-07, No Iterations 68
DILUPBiCGStab:  Solving for Y, Initial residual = 0.0289687, Final residual = 8.00188e-07, No Iterations 67
DILUPBiCGStab:  Solving for Y, Initial residual = 0.0284672, Final residual = 3.3862e-07, No Iterations 68
DILUPBiCGStab:  Solving for Y, Initial residual = 0.0289688, Final residual = 4.55997e-07, No Iterations 67
DILUPBiCGStab:  Solving for Y, Initial residual = 0.0284671, Final residual = 9.49501e-07, No Iterations 67
DILUPBiCGStab:  Solving for Y, Initial residual = 0.0289694, Final residual = 8.55785e-07, No Iterations 66
DILUPBiCGStab:  Solving for Y, Initial residual = 0.0284672, Final residual = 8.33141e-07, No Iterations 67
DILUPBiCGStab:  Solving for Y, Initial residual = 0.0289693, Final residual = 4.65151e-07, No Iterations 68
DILUPBiCGStab:  Solving for Y, Initial residual = 0.0284671, Final residual = 8.23306e-07, No Iterations 67
DILUPBiCGStab:  Solving for Y, Initial residual = 0.0289693, Final residual = 5.57428e-07, No Iterations 66
DILUPBiCGStab:  Solving for Y, Initial residual = 0.0284668, Final residual = 9.97306e-07, No Iterations 66
DILUPBiCGStab:  Solving for Y, Initial residual = 0.0289694, Final residual = 6.49652e-07, No Iterations 67
DILUPBiCGStab:  Solving for Y, Initial residual = 0.0284671, Final residual = 3.85917e-07, No Iterations 67
DILUPBiCGStab:  Solving for Y, Initial residual = 0.0289689, Final residual = 9.58102e-07, No Iterations 67
DILUPBiCGStab:  Solving for Ux, Initial residual = 8.89022e-05, Final residual = 1.0097e-07, No Iterations 1
DILUPBiCGStab:  Solving for Uy, Initial residual = 5.41707e-05, Final residual = 6.97941e-08, No Iterations 1
DILUPBiCGStab:  Solving for T, Initial residual = 3.76235e-06, Final residual = 5.67873e-07, No Iterations 1
DICPCG:  Solving for p_rgh, Initial residual = 9.04786e-05, Final residual = 8.74922e-07, No Iterations 33
time step continuity errors : sum local = 6.29806e-07, global = 1.06811e-07, cumulative = -0.000578222
ExecutionTime = 365.86 s  ClockTime = 368 s

Time = 600

DILUPBiCGStab:  Solving for Y, Initial residual = 0.028468, Final residual = 6.95661e-07, No Iterations 67
DILUPBiCGStab:  Solving for Y, Initial residual = 0.02897, Final residual = 2.20307e-07, No Iterations 68
DILUPBiCGStab:  Solving for Y, Initial residual = 0.0284678, Final residual = 5.80736e-07, No Iterations 68
DILUPBiCGStab:  Solving for Y, Initial residual = 0.0289699, Final residual = 2.83312e-07, No Iterations 68
DILUPBiCGStab:  Solving for Y, Initial residual = 0.0284678, Final residual = 4.03701e-07, No Iterations 68
DILUPBiCGStab:  Solving for Y, Initial residual = 0.0289698, Final residual = 3.29158e-07, No Iterations 68
DILUPBiCGStab:  Solving for Y, Initial residual = 0.0284679, Final residual = 3.3523e-07, No Iterations 68
DILUPBiCGStab:  Solving for Y, Initial residual = 0.028969, Final residual = 7.45339e-07, No Iterations 67
DILUPBiCGStab:  Solving for Y, Initial residual = 0.0284681, Final residual = 6.02185e-07, No Iterations 67
DILUPBiCGStab:  Solving for Y, Initial residual = 0.02897, Final residual = 3.30818e-07, No Iterations 68
DILUPBiCGStab:  Solving for Y, Initial residual = 0.0284679, Final residual = 7.05977e-07, No Iterations 67
DILUPBiCGStab:  Solving for Y, Initial residual = 0.0289701, Final residual = 5.33071e-07, No Iterations 68
DILUPBiCGStab:  Solving for Y, Initial residual = 0.028468, Final residual = 8.56551e-07, No Iterations 67
DILUPBiCGStab:  Solving for Y, Initial residual = 0.0289702, Final residual = 7.74757e-07, No Iterations 67
DILUPBiCGStab:  Solving for Y, Initial residual = 0.0284681, Final residual = 6.56343e-07, No Iterations 68
DILUPBiCGStab:  Solving for Y, Initial residual = 0.02897, Final residual = 6.78549e-07, No Iterations 67
DILUPBiCGStab:  Solving for Y, Initial residual = 0.028468, Final residual = 6.08637e-07, No Iterations 66
DILUPBiCGStab:  Solving for Y, Initial residual = 0.0289699, Final residual = 8.79413e-07, No Iterations 67
DILUPBiCGStab:  Solving for Y, Initial residual = 0.0284681, Final residual = 4.013e-07, No Iterations 68
DILUPBiCGStab:  Solving for Y, Initial residual = 0.0289698, Final residual = 1.23342e-07, No Iterations 68
DILUPBiCGStab:  Solving for Y, Initial residual = 0.0284678, Final residual = 2.71476e-07, No Iterations 67
DILUPBiCGStab:  Solving for Y, Initial residual = 0.0289696, Final residual = 9.14151e-07, No Iterations 67
DILUPBiCGStab:  Solving for Y, Initial residual = 0.0284682, Final residual = 7.04941e-07, No Iterations 67
DILUPBiCGStab:  Solving for Y, Initial residual = 0.0289701, Final residual = 7.00535e-07, No Iterations 67
DILUPBiCGStab:  Solving for Y, Initial residual = 0.028468, Final residual = 8.12435e-07, No Iterations 67
DILUPBiCGStab:  Solving for Y, Initial residual = 0.0289702, Final residual = 5.23358e-07, No Iterations 67
DILUPBiCGStab:  Solving for Y, Initial residual = 0.028468, Final residual = 8.81868e-08, No Iterations 67
DILUPBiCGStab:  Solving for Y, Initial residual = 0.0289693, Final residual = 7.41533e-07, No Iterations 67
DILUPBiCGStab:  Solving for Y, Initial residual = 0.0284681, Final residual = 6.91038e-07, No Iterations 67
DILUPBiCGStab:  Solving for Y, Initial residual = 0.02897, Final residual = 6.70347e-07, No Iterations 66
DILUPBiCGStab:  Solving for Y, Initial residual = 0.028468, Final residual = 6.01314e-07, No Iterations 68
DILUPBiCGStab:  Solving for Y, Initial residual = 0.02897, Final residual = 5.66015e-07, No Iterations 67
DILUPBiCGStab:  Solving for Y, Initial residual = 0.028468, Final residual = 7.1924e-07, No Iterations 66
DILUPBiCGStab:  Solving for Y, Initial residual = 0.0289701, Final residual = 2.12672e-07, No Iterations 65
DILUPBiCGStab:  Solving for Y, Initial residual = 0.0284677, Final residual = 1.97141e-07, No Iterations 68
DILUPBiCGStab:  Solving for Y, Initial residual = 0.0289696, Final residual = 8.40695e-07, No Iterations 67
DILUPBiCGStab:  Solving for Y, Initial residual = 0.0284681, Final residual = 3.72546e-07, No Iterations 67
DILUPBiCGStab:  Solving for Y, Initial residual = 0.0289692, Final residual = 1.58947e-07, No Iterations 67
DILUPBiCGStab:  Solving for Y, Initial residual = 0.0284677, Final residual = 3.93463e-07, No Iterations 68
DILUPBiCGStab:  Solving for Y, Initial residual = 0.0289698, Final residual = 7.62083e-07, No Iterations 67
DILUPBiCGStab:  Solving for Ux, Initial residual = 8.83781e-05, Final residual = 1.00478e-07, No Iterations 1
DILUPBiCGStab:  Solving for Uy, Initial residual = 5.38772e-05, Final residual = 6.94049e-08, No Iterations 1
DILUPBiCGStab:  Solving for T, Initial residual = 3.73347e-06, Final residual = 5.63055e-07, No Iterations 1
DICPCG:  Solving for p_rgh, Initial residual = 8.9688e-05, Final residual = 8.6936e-07, No Iterations 33
time step continuity errors : sum local = 6.25765e-07, global = 1.05876e-07, cumulative = -0.000578116
ExecutionTime = 366.52 s  ClockTime = 369 s

forces forces write:
    sum of forces:
        pressure : (0.750578 9.63795 1.18118e-18)
        viscous  : (0.0722865 -2.27093e-05 -6.0786e-23)
        porous   : (0 0 0)
    sum of moments:
        pressure : (-5.05993 0.394054 5.06937)
        viscous  : (1.19224e-05 0.0379504 -0.00147603)
        porous   : (0 0 0)

forceCoeffs forceCoeffs write:
    Cm    = 0.00464403
    Cd    = 0.00884578
    Cl    = 0.103608
    Cl(f) = 0.0564478
    Cl(r) = 0.0471597

End

