/*---------------------------------------------------------------------------*\
| =========                 |                                                 |
| \\      /  F ield         | OpenFOAM: The Open Source CFD Toolbox           |
|  \\    /   O peration     | Version:  5.x                                   |
|   \\  /    A nd           | Web:      www.OpenFOAM.org                      |
|    \\/     M anipulation  |                                                 |
\*---------------------------------------------------------------------------*/
Build  : 5.x-197d9d3bf20a
Exec   : massBoussinesqSimpleFoam
Date   : Oct 07 2020
Time   : 12:38:49
Host   : "ubuntu"
PID    : 87186
I/O    : uncollated
Case   : /home/sid/OpenFOAM/OpenFOAM-5.0/applications/solvers/testSolvers/massBoussinesqSimpleFoam/tutorial/64A215/262K
nProcs : 1
sigFpe : Enabling floating point exception trapping (FOAM_SIGFPE).
fileModificationChecking : Monitoring run-time modified files using timeStampMaster (fileModificationSkew 10)
allowSystemOperations : Allowing user-supplied system call operations

// * * * * * * * * * * * * * * * * * * * * * * * * * * * * * * * * * * * * * //
Create time

Create mesh for time = 0


SIMPLE: convergence criteria
    field p_rgh	 tolerance 1e-05
    field U	 tolerance 1e-05
    field T	 tolerance 1e-05
    field "(k|epsilon|omega)"	 tolerance 1e-05

Reading thermophysical properties

Reading field T

--> FOAM Warning : 
    From function groovyBCFvPatchField<Type>::groovyBCFvPatchField(const fvPatch& p,const DimensionedField<Type, volMesh>& iF,const dictionary& dict)
    in file groovyBCFvPatchField.C at line 136
    No value defined for T on wing therefore using the internal field next to the patch
Reading field p_rgh

Reading field U

--> FOAM Warning : 
    From function groovyBCFvPatchField<Type>::groovyBCFvPatchField(const fvPatch& p,const DimensionedField<Type, volMesh>& iF,const dictionary& dict)
    in file groovyBCFvPatchField.C at line 136
    No value defined for Y on wing therefore using the internal field next to the patch
Reading/calculating face flux field phi

Selecting incompressible transport model Newtonian
Creating turbulence model

Selecting turbulence model type laminar
Selecting laminar stress model Stokes
Reading field alphat


Reading g

Reading hRef
Calculating field g.h

No MRF models present

Radiation model not active: radiationProperties not found
Selecting radiationModel none
No finite volume options present


Starting time loop

forces forces:
    Not including porosity effects
forces forceCoeffs:
    Not including porosity effects
forceCoeffs forceCoeffs:
    Not including porosity effects
Time = 1

swak4Foam: Allocating new repository for sampledGlobalVariables
DILUPBiCGStab:  Solving for Y, Initial residual = 1, Final residual = 9.23345e-08, No Iterations 42
DILUPBiCGStab:  Solving for Y, Initial residual = 0.0744276, Final residual = 5.82196e-07, No Iterations 53
DILUPBiCGStab:  Solving for Y, Initial residual = 0.0719698, Final residual = 4.446e-07, No Iterations 53
DILUPBiCGStab:  Solving for Y, Initial residual = 0.0744179, Final residual = 4.71529e-07, No Iterations 53
DILUPBiCGStab:  Solving for Y, Initial residual = 0.0719062, Final residual = 5.85883e-07, No Iterations 53
DILUPBiCGStab:  Solving for Y, Initial residual = 0.0744179, Final residual = 4.97509e-07, No Iterations 53
DILUPBiCGStab:  Solving for Y, Initial residual = 0.0719062, Final residual = 4.19297e-07, No Iterations 53
DILUPBiCGStab:  Solving for Y, Initial residual = 0.0744179, Final residual = 4.80503e-07, No Iterations 53
DILUPBiCGStab:  Solving for Y, Initial residual = 0.0719062, Final residual = 5.89119e-07, No Iterations 53
DILUPBiCGStab:  Solving for Y, Initial residual = 0.0744179, Final residual = 4.79692e-07, No Iterations 53
DILUPBiCGStab:  Solving for Y, Initial residual = 0.0719062, Final residual = 7.30852e-07, No Iterations 53
DILUPBiCGStab:  Solving for Y, Initial residual = 0.0744181, Final residual = 4.62403e-07, No Iterations 53
DILUPBiCGStab:  Solving for Y, Initial residual = 0.0719062, Final residual = 5.26368e-07, No Iterations 53
DILUPBiCGStab:  Solving for Y, Initial residual = 0.0744179, Final residual = 8.9966e-07, No Iterations 52
DILUPBiCGStab:  Solving for Y, Initial residual = 0.0719065, Final residual = 4.45454e-07, No Iterations 53
DILUPBiCGStab:  Solving for Y, Initial residual = 0.0744179, Final residual = 4.63264e-07, No Iterations 53
DILUPBiCGStab:  Solving for Y, Initial residual = 0.0719062, Final residual = 6.06041e-07, No Iterations 53
DILUPBiCGStab:  Solving for Y, Initial residual = 0.0744178, Final residual = 5.80823e-07, No Iterations 53
DILUPBiCGStab:  Solving for Y, Initial residual = 0.0719062, Final residual = 5.46905e-07, No Iterations 53
DILUPBiCGStab:  Solving for Y, Initial residual = 0.0744179, Final residual = 6.11952e-07, No Iterations 53
DILUPBiCGStab:  Solving for Y, Initial residual = 0.0719061, Final residual = 5.38362e-07, No Iterations 53
DILUPBiCGStab:  Solving for Y, Initial residual = 0.0744179, Final residual = 9.14177e-07, No Iterations 52
DILUPBiCGStab:  Solving for Y, Initial residual = 0.0719065, Final residual = 5.63312e-07, No Iterations 53
DILUPBiCGStab:  Solving for Y, Initial residual = 0.0744179, Final residual = 7.15082e-07, No Iterations 53
DILUPBiCGStab:  Solving for Y, Initial residual = 0.0719062, Final residual = 4.05033e-07, No Iterations 53
DILUPBiCGStab:  Solving for Y, Initial residual = 0.0744179, Final residual = 5.2725e-07, No Iterations 53
DILUPBiCGStab:  Solving for Y, Initial residual = 0.0719063, Final residual = 4.68695e-07, No Iterations 53
DILUPBiCGStab:  Solving for Y, Initial residual = 0.0744179, Final residual = 4.90277e-07, No Iterations 53
DILUPBiCGStab:  Solving for Y, Initial residual = 0.0719062, Final residual = 5.13129e-07, No Iterations 53
DILUPBiCGStab:  Solving for Y, Initial residual = 0.0744179, Final residual = 7.40215e-07, No Iterations 53
DILUPBiCGStab:  Solving for Y, Initial residual = 0.0719063, Final residual = 5.5335e-07, No Iterations 53
DILUPBiCGStab:  Solving for Y, Initial residual = 0.0744179, Final residual = 4.28203e-07, No Iterations 53
DILUPBiCGStab:  Solving for Y, Initial residual = 0.0719062, Final residual = 4.81596e-07, No Iterations 53
DILUPBiCGStab:  Solving for Y, Initial residual = 0.0744179, Final residual = 4.68024e-07, No Iterations 53
DILUPBiCGStab:  Solving for Y, Initial residual = 0.0719062, Final residual = 5.79116e-07, No Iterations 53
DILUPBiCGStab:  Solving for Y, Initial residual = 0.0744179, Final residual = 5.64529e-07, No Iterations 53
DILUPBiCGStab:  Solving for Y, Initial residual = 0.0719062, Final residual = 4.39356e-07, No Iterations 53
DILUPBiCGStab:  Solving for Y, Initial residual = 0.0744179, Final residual = 5.06559e-07, No Iterations 53
DILUPBiCGStab:  Solving for Y, Initial residual = 0.0719062, Final residual = 5.36219e-07, No Iterations 53
DILUPBiCGStab:  Solving for Y, Initial residual = 0.0744179, Final residual = 8.40522e-07, No Iterations 52
DILUPBiCGStab:  Solving for Ux, Initial residual = 1, Final residual = 6.83439e-07, No Iterations 2
DILUPBiCGStab:  Solving for Uy, Initial residual = 0.999915, Final residual = 6.81173e-08, No Iterations 3
DILUPBiCGStab:  Solving for T, Initial residual = 1, Final residual = 1.40872e-07, No Iterations 4
DICPCG:  Solving for p_rgh, Initial residual = 1, Final residual = 0.00962504, No Iterations 75
time step continuity errors : sum local = 0.000106742, global = -7.75127e-06, cumulative = -7.75127e-06
ExecutionTime = 0.57 s  ClockTime = 0 s

Time = 2

DILUPBiCGStab:  Solving for Y, Initial residual = 0.132032, Final residual = 2.88515e-07, No Iterations 77
DILUPBiCGStab:  Solving for Y, Initial residual = 0.0768443, Final residual = 7.64443e-07, No Iterations 66
DILUPBiCGStab:  Solving for Y, Initial residual = 0.0738399, Final residual = 7.46952e-07, No Iterations 66
DILUPBiCGStab:  Solving for Y, Initial residual = 0.076853, Final residual = 8.505e-07, No Iterations 65
DILUPBiCGStab:  Solving for Y, Initial residual = 0.0736555, Final residual = 3.66819e-07, No Iterations 66
DILUPBiCGStab:  Solving for Y, Initial residual = 0.0768525, Final residual = 4.92666e-07, No Iterations 67
DILUPBiCGStab:  Solving for Y, Initial residual = 0.0736557, Final residual = 8.79702e-07, No Iterations 65
DILUPBiCGStab:  Solving for Y, Initial residual = 0.0768531, Final residual = 8.20113e-07, No Iterations 66
DILUPBiCGStab:  Solving for Y, Initial residual = 0.0736558, Final residual = 4.28131e-08, No Iterations 67
DILUPBiCGStab:  Solving for Y, Initial residual = 0.0768521, Final residual = 3.56066e-07, No Iterations 66
DILUPBiCGStab:  Solving for Y, Initial residual = 0.0736557, Final residual = 9.9603e-07, No Iterations 65
DILUPBiCGStab:  Solving for Y, Initial residual = 0.0768532, Final residual = 6.6468e-07, No Iterations 68
DILUPBiCGStab:  Solving for Y, Initial residual = 0.0736556, Final residual = 1.51265e-07, No Iterations 66
DILUPBiCGStab:  Solving for Y, Initial residual = 0.0768523, Final residual = 1.14809e-07, No Iterations 67
DILUPBiCGStab:  Solving for Y, Initial residual = 0.0736557, Final residual = 4.58937e-07, No Iterations 66
DILUPBiCGStab:  Solving for Y, Initial residual = 0.0768526, Final residual = 3.01361e-07, No Iterations 67
DILUPBiCGStab:  Solving for Y, Initial residual = 0.0736556, Final residual = 1.62912e-07, No Iterations 66
DILUPBiCGStab:  Solving for Y, Initial residual = 0.0768519, Final residual = 5.60644e-07, No Iterations 67
DILUPBiCGStab:  Solving for Y, Initial residual = 0.0736558, Final residual = 1.88583e-07, No Iterations 67
DILUPBiCGStab:  Solving for Y, Initial residual = 0.0768519, Final residual = 8.91575e-07, No Iterations 66
DILUPBiCGStab:  Solving for Y, Initial residual = 0.0736555, Final residual = 5.90289e-07, No Iterations 64
DILUPBiCGStab:  Solving for Y, Initial residual = 0.0768527, Final residual = 6.29196e-08, No Iterations 67
DILUPBiCGStab:  Solving for Y, Initial residual = 0.0736557, Final residual = 5.01759e-07, No Iterations 66
DILUPBiCGStab:  Solving for Y, Initial residual = 0.0768515, Final residual = 2.8835e-07, No Iterations 66
DILUPBiCGStab:  Solving for Y, Initial residual = 0.0736557, Final residual = 9.84454e-07, No Iterations 66
DILUPBiCGStab:  Solving for Y, Initial residual = 0.0768532, Final residual = 9.95075e-07, No Iterations 67
DILUPBiCGStab:  Solving for Y, Initial residual = 0.0736559, Final residual = 9.53864e-07, No Iterations 65
DILUPBiCGStab:  Solving for Y, Initial residual = 0.0768532, Final residual = 3.76863e-07, No Iterations 66
DILUPBiCGStab:  Solving for Y, Initial residual = 0.0736556, Final residual = 4.73167e-07, No Iterations 66
DILUPBiCGStab:  Solving for Y, Initial residual = 0.0768526, Final residual = 1.94657e-07, No Iterations 65
DILUPBiCGStab:  Solving for Y, Initial residual = 0.0736557, Final residual = 3.14469e-07, No Iterations 66
DILUPBiCGStab:  Solving for Y, Initial residual = 0.076852, Final residual = 1.66729e-07, No Iterations 66
DILUPBiCGStab:  Solving for Y, Initial residual = 0.0736557, Final residual = 4.73845e-07, No Iterations 66
DILUPBiCGStab:  Solving for Y, Initial residual = 0.0768515, Final residual = 1.70593e-08, No Iterations 68
DILUPBiCGStab:  Solving for Y, Initial residual = 0.0736557, Final residual = 5.67798e-07, No Iterations 66
DILUPBiCGStab:  Solving for Y, Initial residual = 0.0768527, Final residual = 6.04216e-07, No Iterations 66
DILUPBiCGStab:  Solving for Y, Initial residual = 0.0736556, Final residual = 5.03536e-07, No Iterations 65
DILUPBiCGStab:  Solving for Y, Initial residual = 0.0768526, Final residual = 4.68037e-07, No Iterations 66
DILUPBiCGStab:  Solving for Y, Initial residual = 0.0736556, Final residual = 3.73632e-07, No Iterations 67
DILUPBiCGStab:  Solving for Y, Initial residual = 0.0768525, Final residual = 3.63159e-08, No Iterations 67
DILUPBiCGStab:  Solving for Ux, Initial residual = 0.398912, Final residual = 1.62797e-07, No Iterations 3
DILUPBiCGStab:  Solving for Uy, Initial residual = 0.393213, Final residual = 4.0974e-07, No Iterations 3
DILUPBiCGStab:  Solving for T, Initial residual = 0.0304551, Final residual = 9.78926e-08, No Iterations 3
DICPCG:  Solving for p_rgh, Initial residual = 0.506851, Final residual = 0.00438601, No Iterations 59
time step continuity errors : sum local = 0.000327935, global = 1.13593e-05, cumulative = 3.60805e-06
ExecutionTime = 1.17 s  ClockTime = 1 s

Time = 3

DILUPBiCGStab:  Solving for Y, Initial residual = 0.0814864, Final residual = 9.47292e-07, No Iterations 65
DILUPBiCGStab:  Solving for Y, Initial residual = 0.0781659, Final residual = 2.38202e-08, No Iterations 67
DILUPBiCGStab:  Solving for Y, Initial residual = 0.0748559, Final residual = 2.79649e-08, No Iterations 67
DILUPBiCGStab:  Solving for Y, Initial residual = 0.0781663, Final residual = 5.84005e-07, No Iterations 66
DILUPBiCGStab:  Solving for Y, Initial residual = 0.0748514, Final residual = 6.85001e-07, No Iterations 66
DILUPBiCGStab:  Solving for Y, Initial residual = 0.0781671, Final residual = 3.58977e-07, No Iterations 66
DILUPBiCGStab:  Solving for Y, Initial residual = 0.0748515, Final residual = 9.67561e-07, No Iterations 65
DILUPBiCGStab:  Solving for Y, Initial residual = 0.0781674, Final residual = 3.3671e-07, No Iterations 67
DILUPBiCGStab:  Solving for Y, Initial residual = 0.0748515, Final residual = 5.77802e-07, No Iterations 66
DILUPBiCGStab:  Solving for Y, Initial residual = 0.0781669, Final residual = 2.18289e-07, No Iterations 67
DILUPBiCGStab:  Solving for Y, Initial residual = 0.0748514, Final residual = 1.31315e-07, No Iterations 67
DILUPBiCGStab:  Solving for Y, Initial residual = 0.0781661, Final residual = 8.12886e-07, No Iterations 66
DILUPBiCGStab:  Solving for Y, Initial residual = 0.0748516, Final residual = 9.82446e-07, No Iterations 65
DILUPBiCGStab:  Solving for Y, Initial residual = 0.0781675, Final residual = 8.97405e-07, No Iterations 64
DILUPBiCGStab:  Solving for Y, Initial residual = 0.0748515, Final residual = 7.87732e-08, No Iterations 66
DILUPBiCGStab:  Solving for Y, Initial residual = 0.0781664, Final residual = 3.37294e-07, No Iterations 66
DILUPBiCGStab:  Solving for Y, Initial residual = 0.0748514, Final residual = 2.19453e-07, No Iterations 67
DILUPBiCGStab:  Solving for Y, Initial residual = 0.0781665, Final residual = 4.03956e-07, No Iterations 66
DILUPBiCGStab:  Solving for Y, Initial residual = 0.0748515, Final residual = 1.52362e-07, No Iterations 66
DILUPBiCGStab:  Solving for Y, Initial residual = 0.0781665, Final residual = 4.86612e-08, No Iterations 67
DILUPBiCGStab:  Solving for Y, Initial residual = 0.0748514, Final residual = 8.87793e-08, No Iterations 66
DILUPBiCGStab:  Solving for Y, Initial residual = 0.0781662, Final residual = 7.34981e-07, No Iterations 66
DILUPBiCGStab:  Solving for Y, Initial residual = 0.0748515, Final residual = 9.01294e-07, No Iterations 67
DILUPBiCGStab:  Solving for Y, Initial residual = 0.0781673, Final residual = 7.96783e-08, No Iterations 66
DILUPBiCGStab:  Solving for Y, Initial residual = 0.0748515, Final residual = 7.86994e-07, No Iterations 64
DILUPBiCGStab:  Solving for Y, Initial residual = 0.0781662, Final residual = 4.65319e-07, No Iterations 65
DILUPBiCGStab:  Solving for Y, Initial residual = 0.0748515, Final residual = 3.15948e-07, No Iterations 65
DILUPBiCGStab:  Solving for Y, Initial residual = 0.0781663, Final residual = 1.46939e-07, No Iterations 66
DILUPBiCGStab:  Solving for Y, Initial residual = 0.0748515, Final residual = 5.05437e-07, No Iterations 65
DILUPBiCGStab:  Solving for Y, Initial residual = 0.0781669, Final residual = 1.76392e-08, No Iterations 67
DILUPBiCGStab:  Solving for Y, Initial residual = 0.0748515, Final residual = 1.04083e-07, No Iterations 67
DILUPBiCGStab:  Solving for Y, Initial residual = 0.0781662, Final residual = 9.52248e-08, No Iterations 67
DILUPBiCGStab:  Solving for Y, Initial residual = 0.0748514, Final residual = 6.67913e-07, No Iterations 66
DILUPBiCGStab:  Solving for Y, Initial residual = 0.0781654, Final residual = 6.22285e-08, No Iterations 67
DILUPBiCGStab:  Solving for Y, Initial residual = 0.0748514, Final residual = 2.58372e-07, No Iterations 66
DILUPBiCGStab:  Solving for Y, Initial residual = 0.078166, Final residual = 7.27664e-07, No Iterations 66
DILUPBiCGStab:  Solving for Y, Initial residual = 0.0748513, Final residual = 1.02009e-07, No Iterations 67
DILUPBiCGStab:  Solving for Y, Initial residual = 0.0781662, Final residual = 2.46487e-07, No Iterations 66
DILUPBiCGStab:  Solving for Y, Initial residual = 0.0748515, Final residual = 6.41711e-07, No Iterations 66
DILUPBiCGStab:  Solving for Y, Initial residual = 0.078167, Final residual = 1.36313e-07, No Iterations 67
DILUPBiCGStab:  Solving for Ux, Initial residual = 0.0968497, Final residual = 3.16952e-07, No Iterations 2
DILUPBiCGStab:  Solving for Uy, Initial residual = 0.104237, Final residual = 3.08409e-07, No Iterations 2
DILUPBiCGStab:  Solving for T, Initial residual = 0.0150373, Final residual = 6.20979e-07, No Iterations 2
DICPCG:  Solving for p_rgh, Initial residual = 0.219741, Final residual = 0.0021141, No Iterations 62
time step continuity errors : sum local = 0.000169075, global = 8.92307e-06, cumulative = 1.25311e-05
ExecutionTime = 1.77 s  ClockTime = 2 s

Time = 4

DILUPBiCGStab:  Solving for Y, Initial residual = 0.0781811, Final residual = 2.14727e-07, No Iterations 65
DILUPBiCGStab:  Solving for Y, Initial residual = 0.0782666, Final residual = 2.16812e-07, No Iterations 67
DILUPBiCGStab:  Solving for Y, Initial residual = 0.0749459, Final residual = 1.62178e-07, No Iterations 67
DILUPBiCGStab:  Solving for Y, Initial residual = 0.0782663, Final residual = 1.20689e-07, No Iterations 67
DILUPBiCGStab:  Solving for Y, Initial residual = 0.0749443, Final residual = 9.6718e-07, No Iterations 65
DILUPBiCGStab:  Solving for Y, Initial residual = 0.0782677, Final residual = 4.42752e-07, No Iterations 66
DILUPBiCGStab:  Solving for Y, Initial residual = 0.0749444, Final residual = 3.84128e-07, No Iterations 66
DILUPBiCGStab:  Solving for Y, Initial residual = 0.078266, Final residual = 1.69668e-07, No Iterations 66
DILUPBiCGStab:  Solving for Y, Initial residual = 0.0749443, Final residual = 7.31487e-07, No Iterations 66
DILUPBiCGStab:  Solving for Y, Initial residual = 0.0782673, Final residual = 3.89176e-08, No Iterations 67
DILUPBiCGStab:  Solving for Y, Initial residual = 0.0749443, Final residual = 4.6923e-08, No Iterations 66
DILUPBiCGStab:  Solving for Y, Initial residual = 0.0782665, Final residual = 2.64355e-07, No Iterations 66
DILUPBiCGStab:  Solving for Y, Initial residual = 0.0749443, Final residual = 3.48865e-07, No Iterations 66
DILUPBiCGStab:  Solving for Y, Initial residual = 0.0782669, Final residual = 3.31259e-08, No Iterations 67
DILUPBiCGStab:  Solving for Y, Initial residual = 0.0749443, Final residual = 7.78508e-07, No Iterations 64
DILUPBiCGStab:  Solving for Y, Initial residual = 0.078267, Final residual = 3.12101e-08, No Iterations 67
DILUPBiCGStab:  Solving for Y, Initial residual = 0.0749443, Final residual = 2.05912e-07, No Iterations 66
DILUPBiCGStab:  Solving for Y, Initial residual = 0.0782667, Final residual = 3.69356e-08, No Iterations 67
DILUPBiCGStab:  Solving for Y, Initial residual = 0.0749443, Final residual = 9.70492e-07, No Iterations 65
DILUPBiCGStab:  Solving for Y, Initial residual = 0.0782677, Final residual = 1.75761e-07, No Iterations 66
DILUPBiCGStab:  Solving for Y, Initial residual = 0.0749444, Final residual = 9.55125e-07, No Iterations 65
DILUPBiCGStab:  Solving for Y, Initial residual = 0.0782676, Final residual = 2.91275e-07, No Iterations 66
DILUPBiCGStab:  Solving for Y, Initial residual = 0.0749444, Final residual = 9.6685e-07, No Iterations 66
DILUPBiCGStab:  Solving for Y, Initial residual = 0.0782653, Final residual = 6.14269e-07, No Iterations 66
DILUPBiCGStab:  Solving for Y, Initial residual = 0.0749444, Final residual = 9.79582e-07, No Iterations 65
DILUPBiCGStab:  Solving for Y, Initial residual = 0.0782653, Final residual = 1.14434e-07, No Iterations 67
DILUPBiCGStab:  Solving for Y, Initial residual = 0.0749443, Final residual = 1.24329e-07, No Iterations 65
DILUPBiCGStab:  Solving for Y, Initial residual = 0.0782666, Final residual = 5.61317e-07, No Iterations 66
DILUPBiCGStab:  Solving for Y, Initial residual = 0.0749444, Final residual = 5.75052e-07, No Iterations 66
DILUPBiCGStab:  Solving for Y, Initial residual = 0.0782672, Final residual = 4.24865e-07, No Iterations 66
DILUPBiCGStab:  Solving for Y, Initial residual = 0.0749443, Final residual = 2.08846e-07, No Iterations 67
DILUPBiCGStab:  Solving for Y, Initial residual = 0.0782663, Final residual = 2.20234e-07, No Iterations 66
DILUPBiCGStab:  Solving for Y, Initial residual = 0.0749443, Final residual = 6.27157e-08, No Iterations 66
DILUPBiCGStab:  Solving for Y, Initial residual = 0.0782666, Final residual = 9.72779e-07, No Iterations 66
DILUPBiCGStab:  Solving for Y, Initial residual = 0.0749445, Final residual = 5.07142e-07, No Iterations 66
DILUPBiCGStab:  Solving for Y, Initial residual = 0.0782659, Final residual = 8.55248e-07, No Iterations 65
DILUPBiCGStab:  Solving for Y, Initial residual = 0.0749441, Final residual = 3.65984e-08, No Iterations 67
DILUPBiCGStab:  Solving for Y, Initial residual = 0.0782665, Final residual = 8.91185e-07, No Iterations 65
DILUPBiCGStab:  Solving for Y, Initial residual = 0.0749444, Final residual = 9.288e-07, No Iterations 66
DILUPBiCGStab:  Solving for Y, Initial residual = 0.0782654, Final residual = 7.53278e-07, No Iterations 66
DILUPBiCGStab:  Solving for Ux, Initial residual = 0.0837142, Final residual = 2.2645e-07, No Iterations 2
DILUPBiCGStab:  Solving for Uy, Initial residual = 0.0881606, Final residual = 3.40543e-07, No Iterations 2
DILUPBiCGStab:  Solving for T, Initial residual = 0.00994232, Final residual = 4.15915e-07, No Iterations 2
DICPCG:  Solving for p_rgh, Initial residual = 0.326332, Final residual = 0.00289926, No Iterations 50
time step continuity errors : sum local = 0.000157729, global = -5.01649e-06, cumulative = 7.51463e-06
ExecutionTime = 2.37 s  ClockTime = 2 s

Time = 5

DILUPBiCGStab:  Solving for Y, Initial residual = 0.0769153, Final residual = 7.69029e-07, No Iterations 65
DILUPBiCGStab:  Solving for Y, Initial residual = 0.0787586, Final residual = 7.07735e-07, No Iterations 66
DILUPBiCGStab:  Solving for Y, Initial residual = 0.0753937, Final residual = 2.73746e-07, No Iterations 66
DILUPBiCGStab:  Solving for Y, Initial residual = 0.0787577, Final residual = 4.24761e-07, No Iterations 66
DILUPBiCGStab:  Solving for Y, Initial residual = 0.0753938, Final residual = 9.87503e-07, No Iterations 65
DILUPBiCGStab:  Solving for Y, Initial residual = 0.0787592, Final residual = 3.64066e-08, No Iterations 67
DILUPBiCGStab:  Solving for Y, Initial residual = 0.0753939, Final residual = 5.97647e-07, No Iterations 66
DILUPBiCGStab:  Solving for Y, Initial residual = 0.0787588, Final residual = 2.42402e-07, No Iterations 66
DILUPBiCGStab:  Solving for Y, Initial residual = 0.0753939, Final residual = 9.70921e-07, No Iterations 66
DILUPBiCGStab:  Solving for Y, Initial residual = 0.0787568, Final residual = 9.39294e-08, No Iterations 67
DILUPBiCGStab:  Solving for Y, Initial residual = 0.0753939, Final residual = 7.13167e-08, No Iterations 67
DILUPBiCGStab:  Solving for Y, Initial residual = 0.078758, Final residual = 9.69353e-07, No Iterations 65
DILUPBiCGStab:  Solving for Y, Initial residual = 0.075394, Final residual = 3.81144e-08, No Iterations 67
DILUPBiCGStab:  Solving for Y, Initial residual = 0.078758, Final residual = 2.42543e-08, No Iterations 67
DILUPBiCGStab:  Solving for Y, Initial residual = 0.0753939, Final residual = 5.50065e-08, No Iterations 66
DILUPBiCGStab:  Solving for Y, Initial residual = 0.078758, Final residual = 4.92859e-07, No Iterations 66
DILUPBiCGStab:  Solving for Y, Initial residual = 0.0753938, Final residual = 9.92187e-07, No Iterations 65
DILUPBiCGStab:  Solving for Y, Initial residual = 0.0787593, Final residual = 6.71702e-08, No Iterations 66
DILUPBiCGStab:  Solving for Y, Initial residual = 0.0753939, Final residual = 6.19576e-07, No Iterations 66
DILUPBiCGStab:  Solving for Y, Initial residual = 0.0787573, Final residual = 1.57681e-08, No Iterations 68
DILUPBiCGStab:  Solving for Y, Initial residual = 0.0753939, Final residual = 5.54101e-07, No Iterations 65
DILUPBiCGStab:  Solving for Y, Initial residual = 0.0787575, Final residual = 9.86839e-07, No Iterations 65
DILUPBiCGStab:  Solving for Y, Initial residual = 0.075394, Final residual = 6.40638e-08, No Iterations 66
DILUPBiCGStab:  Solving for Y, Initial residual = 0.0787581, Final residual = 8.31861e-07, No Iterations 64
DILUPBiCGStab:  Solving for Y, Initial residual = 0.0753939, Final residual = 5.99425e-08, No Iterations 67
DILUPBiCGStab:  Solving for Y, Initial residual = 0.078758, Final residual = 7.82791e-07, No Iterations 65
DILUPBiCGStab:  Solving for Y, Initial residual = 0.075394, Final residual = 3.86065e-07, No Iterations 66
DILUPBiCGStab:  Solving for Y, Initial residual = 0.0787576, Final residual = 5.30692e-08, No Iterations 66
DILUPBiCGStab:  Solving for Y, Initial residual = 0.0753939, Final residual = 6.27298e-08, No Iterations 67
DILUPBiCGStab:  Solving for Y, Initial residual = 0.078758, Final residual = 9.69406e-08, No Iterations 67
DILUPBiCGStab:  Solving for Y, Initial residual = 0.0753939, Final residual = 7.98892e-07, No Iterations 65
DILUPBiCGStab:  Solving for Y, Initial residual = 0.078759, Final residual = 3.06736e-07, No Iterations 67
DILUPBiCGStab:  Solving for Y, Initial residual = 0.075394, Final residual = 2.00845e-07, No Iterations 66
DILUPBiCGStab:  Solving for Y, Initial residual = 0.0787583, Final residual = 6.63469e-08, No Iterations 66
DILUPBiCGStab:  Solving for Y, Initial residual = 0.0753939, Final residual = 9.42741e-07, No Iterations 65
DILUPBiCGStab:  Solving for Y, Initial residual = 0.0787592, Final residual = 1.22953e-07, No Iterations 67
DILUPBiCGStab:  Solving for Y, Initial residual = 0.0753939, Final residual = 4.58736e-07, No Iterations 66
DILUPBiCGStab:  Solving for Y, Initial residual = 0.0787575, Final residual = 9.93604e-07, No Iterations 65
DILUPBiCGStab:  Solving for Y, Initial residual = 0.075394, Final residual = 6.24404e-07, No Iterations 65
DILUPBiCGStab:  Solving for Y, Initial residual = 0.0787588, Final residual = 3.67639e-07, No Iterations 67
DILUPBiCGStab:  Solving for Ux, Initial residual = 0.0702057, Final residual = 2.15057e-07, No Iterations 2
DILUPBiCGStab:  Solving for Uy, Initial residual = 0.0757055, Final residual = 3.10595e-07, No Iterations 2
DILUPBiCGStab:  Solving for T, Initial residual = 0.00735406, Final residual = 3.07543e-07, No Iterations 2
DICPCG:  Solving for p_rgh, Initial residual = 0.359814, Final residual = 0.00308196, No Iterations 58
time step continuity errors : sum local = 9.91608e-05, global = -2.33727e-06, cumulative = 5.17736e-06
ExecutionTime = 2.97 s  ClockTime = 3 s

Time = 6

DILUPBiCGStab:  Solving for Y, Initial residual = 0.0769644, Final residual = 8.07271e-07, No Iterations 65
DILUPBiCGStab:  Solving for Y, Initial residual = 0.0790209, Final residual = 9.6266e-07, No Iterations 64
DILUPBiCGStab:  Solving for Y, Initial residual = 0.0756336, Final residual = 4.32972e-07, No Iterations 66
DILUPBiCGStab:  Solving for Y, Initial residual = 0.0790196, Final residual = 6.60556e-07, No Iterations 66
DILUPBiCGStab:  Solving for Y, Initial residual = 0.0756336, Final residual = 9.91539e-07, No Iterations 64
DILUPBiCGStab:  Solving for Y, Initial residual = 0.0790212, Final residual = 2.29879e-08, No Iterations 67
DILUPBiCGStab:  Solving for Y, Initial residual = 0.0756337, Final residual = 7.80265e-08, No Iterations 67
DILUPBiCGStab:  Solving for Y, Initial residual = 0.0790201, Final residual = 9.40395e-07, No Iterations 64
DILUPBiCGStab:  Solving for Y, Initial residual = 0.0756337, Final residual = 4.3584e-07, No Iterations 67
DILUPBiCGStab:  Solving for Y, Initial residual = 0.0790207, Final residual = 1.17322e-07, No Iterations 65
DILUPBiCGStab:  Solving for Y, Initial residual = 0.0756337, Final residual = 1.35906e-07, No Iterations 66
DILUPBiCGStab:  Solving for Y, Initial residual = 0.0790203, Final residual = 5.22297e-07, No Iterations 66
DILUPBiCGStab:  Solving for Y, Initial residual = 0.0756337, Final residual = 2.19725e-07, No Iterations 66
DILUPBiCGStab:  Solving for Y, Initial residual = 0.0790204, Final residual = 9.90801e-07, No Iterations 66
DILUPBiCGStab:  Solving for Y, Initial residual = 0.0756338, Final residual = 7.32479e-07, No Iterations 66
DILUPBiCGStab:  Solving for Y, Initial residual = 0.079021, Final residual = 4.98056e-08, No Iterations 67
DILUPBiCGStab:  Solving for Y, Initial residual = 0.0756337, Final residual = 9.91337e-07, No Iterations 66
DILUPBiCGStab:  Solving for Y, Initial residual = 0.0790213, Final residual = 7.19138e-08, No Iterations 66
DILUPBiCGStab:  Solving for Y, Initial residual = 0.0756337, Final residual = 6.24117e-07, No Iterations 65
DILUPBiCGStab:  Solving for Y, Initial residual = 0.0790209, Final residual = 2.21216e-07, No Iterations 66
DILUPBiCGStab:  Solving for Y, Initial residual = 0.0756336, Final residual = 1.66912e-08, No Iterations 68
DILUPBiCGStab:  Solving for Y, Initial residual = 0.0790201, Final residual = 4.4511e-07, No Iterations 66
DILUPBiCGStab:  Solving for Y, Initial residual = 0.0756336, Final residual = 1.43889e-07, No Iterations 65
DILUPBiCGStab:  Solving for Y, Initial residual = 0.0790202, Final residual = 9.1856e-07, No Iterations 66
DILUPBiCGStab:  Solving for Y, Initial residual = 0.0756338, Final residual = 9.90885e-07, No Iterations 66
DILUPBiCGStab:  Solving for Y, Initial residual = 0.0790189, Final residual = 5.92281e-07, No Iterations 66
DILUPBiCGStab:  Solving for Y, Initial residual = 0.0756337, Final residual = 7.29818e-07, No Iterations 66
DILUPBiCGStab:  Solving for Y, Initial residual = 0.079021, Final residual = 9.48264e-07, No Iterations 65
DILUPBiCGStab:  Solving for Y, Initial residual = 0.0756338, Final residual = 6.11809e-08, No Iterations 67
DILUPBiCGStab:  Solving for Y, Initial residual = 0.0790201, Final residual = 8.79126e-07, No Iterations 66
DILUPBiCGStab:  Solving for Y, Initial residual = 0.0756336, Final residual = 3.88897e-07, No Iterations 66
DILUPBiCGStab:  Solving for Y, Initial residual = 0.0790197, Final residual = 1.12281e-07, No Iterations 66
DILUPBiCGStab:  Solving for Y, Initial residual = 0.0756336, Final residual = 9.55873e-07, No Iterations 66
DILUPBiCGStab:  Solving for Y, Initial residual = 0.0790189, Final residual = 5.4686e-07, No Iterations 66
DILUPBiCGStab:  Solving for Y, Initial residual = 0.0756337, Final residual = 7.06841e-08, No Iterations 66
DILUPBiCGStab:  Solving for Y, Initial residual = 0.0790201, Final residual = 4.71835e-07, No Iterations 65
DILUPBiCGStab:  Solving for Y, Initial residual = 0.0756337, Final residual = 9.73447e-07, No Iterations 65
DILUPBiCGStab:  Solving for Y, Initial residual = 0.0790213, Final residual = 1.87521e-07, No Iterations 66
DILUPBiCGStab:  Solving for Y, Initial residual = 0.0756337, Final residual = 9.80941e-07, No Iterations 65
DILUPBiCGStab:  Solving for Y, Initial residual = 0.0790213, Final residual = 3.25244e-08, No Iterations 67
DILUPBiCGStab:  Solving for Ux, Initial residual = 0.0152176, Final residual = 2.04579e-07, No Iterations 2
DILUPBiCGStab:  Solving for Uy, Initial residual = 0.015884, Final residual = 7.01556e-08, No Iterations 2
DILUPBiCGStab:  Solving for T, Initial residual = 0.00579133, Final residual = 2.41367e-07, No Iterations 2
DICPCG:  Solving for p_rgh, Initial residual = 0.288579, Final residual = 0.00264469, No Iterations 33
time step continuity errors : sum local = 5.38136e-05, global = -9.33525e-06, cumulative = -4.15789e-06
ExecutionTime = 3.57 s  ClockTime = 3 s

Time = 7

DILUPBiCGStab:  Solving for Y, Initial residual = 0.0766853, Final residual = 3.29702e-07, No Iterations 66
DILUPBiCGStab:  Solving for Y, Initial residual = 0.0792343, Final residual = 6.34666e-07, No Iterations 66
DILUPBiCGStab:  Solving for Y, Initial residual = 0.0758301, Final residual = 2.0394e-07, No Iterations 65
DILUPBiCGStab:  Solving for Y, Initial residual = 0.0792349, Final residual = 3.33798e-07, No Iterations 66
DILUPBiCGStab:  Solving for Y, Initial residual = 0.0758298, Final residual = 2.0516e-07, No Iterations 66
DILUPBiCGStab:  Solving for Y, Initial residual = 0.0792345, Final residual = 9.83361e-07, No Iterations 65
DILUPBiCGStab:  Solving for Y, Initial residual = 0.0758299, Final residual = 1.05132e-07, No Iterations 65
DILUPBiCGStab:  Solving for Y, Initial residual = 0.0792348, Final residual = 8.82082e-07, No Iterations 63
DILUPBiCGStab:  Solving for Y, Initial residual = 0.07583, Final residual = 4.29025e-07, No Iterations 66
DILUPBiCGStab:  Solving for Y, Initial residual = 0.0792352, Final residual = 5.61003e-07, No Iterations 66
DILUPBiCGStab:  Solving for Y, Initial residual = 0.0758297, Final residual = 7.71786e-07, No Iterations 65
DILUPBiCGStab:  Solving for Y, Initial residual = 0.0792356, Final residual = 3.0535e-07, No Iterations 67
DILUPBiCGStab:  Solving for Y, Initial residual = 0.0758298, Final residual = 5.39919e-08, No Iterations 67
DILUPBiCGStab:  Solving for Y, Initial residual = 0.0792347, Final residual = 6.75207e-07, No Iterations 64
DILUPBiCGStab:  Solving for Y, Initial residual = 0.0758297, Final residual = 5.1306e-07, No Iterations 66
DILUPBiCGStab:  Solving for Y, Initial residual = 0.0792341, Final residual = 6.04207e-07, No Iterations 66
DILUPBiCGStab:  Solving for Y, Initial residual = 0.0758297, Final residual = 2.04385e-07, No Iterations 66
DILUPBiCGStab:  Solving for Y, Initial residual = 0.0792349, Final residual = 5.0171e-07, No Iterations 66
DILUPBiCGStab:  Solving for Y, Initial residual = 0.0758297, Final residual = 1.83017e-08, No Iterations 68
DILUPBiCGStab:  Solving for Y, Initial residual = 0.0792347, Final residual = 3.57247e-07, No Iterations 66
DILUPBiCGStab:  Solving for Y, Initial residual = 0.0758298, Final residual = 6.74651e-07, No Iterations 66
DILUPBiCGStab:  Solving for Y, Initial residual = 0.0792339, Final residual = 4.68213e-07, No Iterations 66
DILUPBiCGStab:  Solving for Y, Initial residual = 0.0758298, Final residual = 6.07909e-07, No Iterations 66
DILUPBiCGStab:  Solving for Y, Initial residual = 0.079234, Final residual = 9.33047e-07, No Iterations 66
DILUPBiCGStab:  Solving for Y, Initial residual = 0.0758299, Final residual = 4.47549e-07, No Iterations 65
DILUPBiCGStab:  Solving for Y, Initial residual = 0.0792342, Final residual = 5.73161e-08, No Iterations 67
DILUPBiCGStab:  Solving for Y, Initial residual = 0.0758298, Final residual = 1.02748e-07, No Iterations 67
DILUPBiCGStab:  Solving for Y, Initial residual = 0.0792348, Final residual = 6.92874e-07, No Iterations 66
DILUPBiCGStab:  Solving for Y, Initial residual = 0.0758297, Final residual = 5.50182e-07, No Iterations 65
DILUPBiCGStab:  Solving for Y, Initial residual = 0.0792347, Final residual = 1.17665e-07, No Iterations 67
DILUPBiCGStab:  Solving for Y, Initial residual = 0.0758298, Final residual = 8.36139e-07, No Iterations 66
DILUPBiCGStab:  Solving for Y, Initial residual = 0.0792337, Final residual = 1.11722e-07, No Iterations 67
DILUPBiCGStab:  Solving for Y, Initial residual = 0.0758298, Final residual = 5.78329e-07, No Iterations 66
DILUPBiCGStab:  Solving for Y, Initial residual = 0.079234, Final residual = 1.48051e-07, No Iterations 66
DILUPBiCGStab:  Solving for Y, Initial residual = 0.0758298, Final residual = 1.70093e-07, No Iterations 67
DILUPBiCGStab:  Solving for Y, Initial residual = 0.0792345, Final residual = 9.79728e-08, No Iterations 66
DILUPBiCGStab:  Solving for Y, Initial residual = 0.0758298, Final residual = 7.63763e-07, No Iterations 66
DILUPBiCGStab:  Solving for Y, Initial residual = 0.0792356, Final residual = 9.06216e-07, No Iterations 65
DILUPBiCGStab:  Solving for Y, Initial residual = 0.0758299, Final residual = 9.77036e-07, No Iterations 65
DILUPBiCGStab:  Solving for Y, Initial residual = 0.0792359, Final residual = 4.40371e-07, No Iterations 66
DILUPBiCGStab:  Solving for Ux, Initial residual = 0.0228862, Final residual = 7.12735e-08, No Iterations 2
DILUPBiCGStab:  Solving for Uy, Initial residual = 0.0236954, Final residual = 6.95607e-08, No Iterations 2
DILUPBiCGStab:  Solving for T, Initial residual = 0.00473844, Final residual = 1.97386e-07, No Iterations 2
DICPCG:  Solving for p_rgh, Initial residual = 0.173403, Final residual = 0.00162455, No Iterations 57
time step continuity errors : sum local = 3.76455e-05, global = 6.47679e-07, cumulative = -3.51021e-06
ExecutionTime = 4.16 s  ClockTime = 4 s

Time = 8

DILUPBiCGStab:  Solving for Y, Initial residual = 0.0766327, Final residual = 2.02823e-07, No Iterations 66
DILUPBiCGStab:  Solving for Y, Initial residual = 0.0794297, Final residual = 2.47364e-07, No Iterations 66
DILUPBiCGStab:  Solving for Y, Initial residual = 0.0760085, Final residual = 2.52929e-07, No Iterations 66
DILUPBiCGStab:  Solving for Y, Initial residual = 0.0794297, Final residual = 1.41345e-07, No Iterations 67
DILUPBiCGStab:  Solving for Y, Initial residual = 0.0760083, Final residual = 7.79517e-07, No Iterations 67
DILUPBiCGStab:  Solving for Y, Initial residual = 0.0794309, Final residual = 9.90695e-07, No Iterations 64
DILUPBiCGStab:  Solving for Y, Initial residual = 0.0760083, Final residual = 9.90528e-08, No Iterations 66
DILUPBiCGStab:  Solving for Y, Initial residual = 0.0794299, Final residual = 9.8359e-07, No Iterations 65
DILUPBiCGStab:  Solving for Y, Initial residual = 0.0760084, Final residual = 1.43236e-07, No Iterations 67
DILUPBiCGStab:  Solving for Y, Initial residual = 0.0794298, Final residual = 4.34349e-07, No Iterations 66
DILUPBiCGStab:  Solving for Y, Initial residual = 0.0760084, Final residual = 9.6588e-07, No Iterations 65
DILUPBiCGStab:  Solving for Y, Initial residual = 0.0794312, Final residual = 7.45975e-07, No Iterations 65
DILUPBiCGStab:  Solving for Y, Initial residual = 0.0760084, Final residual = 4.9191e-08, No Iterations 67
DILUPBiCGStab:  Solving for Y, Initial residual = 0.07943, Final residual = 6.80305e-07, No Iterations 66
DILUPBiCGStab:  Solving for Y, Initial residual = 0.0760084, Final residual = 1.44452e-07, No Iterations 66
DILUPBiCGStab:  Solving for Y, Initial residual = 0.0794298, Final residual = 2.74886e-08, No Iterations 67
DILUPBiCGStab:  Solving for Y, Initial residual = 0.0760083, Final residual = 2.83546e-08, No Iterations 67
DILUPBiCGStab:  Solving for Y, Initial residual = 0.07943, Final residual = 3.15673e-07, No Iterations 66
DILUPBiCGStab:  Solving for Y, Initial residual = 0.0760083, Final residual = 6.64897e-08, No Iterations 67
DILUPBiCGStab:  Solving for Y, Initial residual = 0.0794301, Final residual = 9.92734e-07, No Iterations 65
DILUPBiCGStab:  Solving for Y, Initial residual = 0.0760085, Final residual = 8.54793e-07, No Iterations 66
DILUPBiCGStab:  Solving for Y, Initial residual = 0.079431, Final residual = 2.44055e-07, No Iterations 66
DILUPBiCGStab:  Solving for Y, Initial residual = 0.0760083, Final residual = 3.48653e-08, No Iterations 67
DILUPBiCGStab:  Solving for Y, Initial residual = 0.07943, Final residual = 3.1681e-07, No Iterations 66
DILUPBiCGStab:  Solving for Y, Initial residual = 0.0760083, Final residual = 9.71258e-08, No Iterations 67
DILUPBiCGStab:  Solving for Y, Initial residual = 0.0794301, Final residual = 6.87912e-08, No Iterations 67
DILUPBiCGStab:  Solving for Y, Initial residual = 0.0760083, Final residual = 8.85233e-08, No Iterations 67
DILUPBiCGStab:  Solving for Y, Initial residual = 0.0794299, Final residual = 5.41475e-08, No Iterations 66
DILUPBiCGStab:  Solving for Y, Initial residual = 0.0760083, Final residual = 6.81931e-08, No Iterations 67
DILUPBiCGStab:  Solving for Y, Initial residual = 0.0794299, Final residual = 9.64218e-07, No Iterations 65
DILUPBiCGStab:  Solving for Y, Initial residual = 0.0760085, Final residual = 8.95713e-08, No Iterations 67
DILUPBiCGStab:  Solving for Y, Initial residual = 0.0794301, Final residual = 4.49233e-07, No Iterations 66
DILUPBiCGStab:  Solving for Y, Initial residual = 0.0760084, Final residual = 6.32559e-08, No Iterations 67
DILUPBiCGStab:  Solving for Y, Initial residual = 0.0794301, Final residual = 2.71893e-07, No Iterations 66
DILUPBiCGStab:  Solving for Y, Initial residual = 0.0760083, Final residual = 2.13538e-08, No Iterations 68
DILUPBiCGStab:  Solving for Y, Initial residual = 0.07943, Final residual = 4.8783e-08, No Iterations 67
DILUPBiCGStab:  Solving for Y, Initial residual = 0.0760083, Final residual = 8.47747e-07, No Iterations 65
DILUPBiCGStab:  Solving for Y, Initial residual = 0.079431, Final residual = 1.17337e-07, No Iterations 66
DILUPBiCGStab:  Solving for Y, Initial residual = 0.0760083, Final residual = 6.84508e-08, No Iterations 67
DILUPBiCGStab:  Solving for Y, Initial residual = 0.0794301, Final residual = 2.52345e-07, No Iterations 65
DILUPBiCGStab:  Solving for Ux, Initial residual = 0.0103197, Final residual = 9.28255e-07, No Iterations 2
DILUPBiCGStab:  Solving for Uy, Initial residual = 0.00703139, Final residual = 5.46058e-07, No Iterations 2
DILUPBiCGStab:  Solving for T, Initial residual = 0.0039894, Final residual = 1.66481e-07, No Iterations 2
DICPCG:  Solving for p_rgh, Initial residual = 0.0847145, Final residual = 0.000840673, No Iterations 53
time step continuity errors : sum local = 2.11717e-05, global = 6.18747e-07, cumulative = -2.89147e-06
ExecutionTime = 4.77 s  ClockTime = 5 s

Time = 9

DILUPBiCGStab:  Solving for Y, Initial residual = 0.0766642, Final residual = 9.51995e-07, No Iterations 66
DILUPBiCGStab:  Solving for Y, Initial residual = 0.0795758, Final residual = 5.19638e-07, No Iterations 66
DILUPBiCGStab:  Solving for Y, Initial residual = 0.0761412, Final residual = 8.61903e-07, No Iterations 66
DILUPBiCGStab:  Solving for Y, Initial residual = 0.0795759, Final residual = 6.53626e-08, No Iterations 67
DILUPBiCGStab:  Solving for Y, Initial residual = 0.076141, Final residual = 8.63032e-07, No Iterations 66
DILUPBiCGStab:  Solving for Y, Initial residual = 0.0795738, Final residual = 3.52948e-07, No Iterations 66
DILUPBiCGStab:  Solving for Y, Initial residual = 0.0761409, Final residual = 7.67456e-07, No Iterations 66
DILUPBiCGStab:  Solving for Y, Initial residual = 0.0795758, Final residual = 8.67866e-08, No Iterations 67
DILUPBiCGStab:  Solving for Y, Initial residual = 0.076141, Final residual = 4.1554e-07, No Iterations 66
DILUPBiCGStab:  Solving for Y, Initial residual = 0.0795744, Final residual = 4.70133e-07, No Iterations 66
DILUPBiCGStab:  Solving for Y, Initial residual = 0.0761409, Final residual = 2.51812e-07, No Iterations 65
DILUPBiCGStab:  Solving for Y, Initial residual = 0.0795746, Final residual = 3.91385e-08, No Iterations 67
DILUPBiCGStab:  Solving for Y, Initial residual = 0.0761409, Final residual = 8.44946e-07, No Iterations 66
DILUPBiCGStab:  Solving for Y, Initial residual = 0.0795738, Final residual = 1.1576e-07, No Iterations 66
DILUPBiCGStab:  Solving for Y, Initial residual = 0.0761409, Final residual = 9.99374e-07, No Iterations 65
DILUPBiCGStab:  Solving for Y, Initial residual = 0.0795761, Final residual = 2.34822e-07, No Iterations 66
DILUPBiCGStab:  Solving for Y, Initial residual = 0.076141, Final residual = 4.75423e-08, No Iterations 67
DILUPBiCGStab:  Solving for Y, Initial residual = 0.0795749, Final residual = 3.59202e-07, No Iterations 66
DILUPBiCGStab:  Solving for Y, Initial residual = 0.076141, Final residual = 3.12452e-07, No Iterations 66
DILUPBiCGStab:  Solving for Y, Initial residual = 0.0795745, Final residual = 4.50831e-07, No Iterations 66
DILUPBiCGStab:  Solving for Y, Initial residual = 0.076141, Final residual = 6.93874e-07, No Iterations 66
DILUPBiCGStab:  Solving for Y, Initial residual = 0.0795757, Final residual = 9.83508e-07, No Iterations 66
DILUPBiCGStab:  Solving for Y, Initial residual = 0.0761411, Final residual = 6.23529e-08, No Iterations 67
DILUPBiCGStab:  Solving for Y, Initial residual = 0.0795748, Final residual = 2.51198e-08, No Iterations 67
DILUPBiCGStab:  Solving for Y, Initial residual = 0.0761409, Final residual = 5.94199e-08, No Iterations 67
DILUPBiCGStab:  Solving for Y, Initial residual = 0.0795748, Final residual = 7.87476e-07, No Iterations 66
DILUPBiCGStab:  Solving for Y, Initial residual = 0.0761409, Final residual = 2.7336e-07, No Iterations 66
DILUPBiCGStab:  Solving for Y, Initial residual = 0.0795746, Final residual = 6.01415e-08, No Iterations 67
DILUPBiCGStab:  Solving for Y, Initial residual = 0.0761409, Final residual = 5.56376e-07, No Iterations 66
DILUPBiCGStab:  Solving for Y, Initial residual = 0.0795756, Final residual = 7.02869e-07, No Iterations 65
DILUPBiCGStab:  Solving for Y, Initial residual = 0.076141, Final residual = 4.61125e-07, No Iterations 66
DILUPBiCGStab:  Solving for Y, Initial residual = 0.0795755, Final residual = 9.82642e-07, No Iterations 66
DILUPBiCGStab:  Solving for Y, Initial residual = 0.0761411, Final residual = 3.31711e-08, No Iterations 67
DILUPBiCGStab:  Solving for Y, Initial residual = 0.0795749, Final residual = 8.5691e-08, No Iterations 67
DILUPBiCGStab:  Solving for Y, Initial residual = 0.076141, Final residual = 3.34931e-07, No Iterations 66
DILUPBiCGStab:  Solving for Y, Initial residual = 0.0795753, Final residual = 2.64706e-08, No Iterations 67
DILUPBiCGStab:  Solving for Y, Initial residual = 0.076141, Final residual = 1.42933e-07, No Iterations 67
DILUPBiCGStab:  Solving for Y, Initial residual = 0.0795747, Final residual = 9.91908e-07, No Iterations 65
DILUPBiCGStab:  Solving for Y, Initial residual = 0.0761411, Final residual = 5.51133e-07, No Iterations 66
DILUPBiCGStab:  Solving for Y, Initial residual = 0.0795742, Final residual = 7.23714e-08, No Iterations 66
DILUPBiCGStab:  Solving for Ux, Initial residual = 0.00957126, Final residual = 4.67351e-07, No Iterations 2
DILUPBiCGStab:  Solving for Uy, Initial residual = 0.0079066, Final residual = 6.7702e-07, No Iterations 2
DILUPBiCGStab:  Solving for T, Initial residual = 0.00343172, Final residual = 1.42221e-07, No Iterations 2
DICPCG:  Solving for p_rgh, Initial residual = 0.0626394, Final residual = 0.000598552, No Iterations 50
time step continuity errors : sum local = 1.46242e-05, global = -7.6305e-07, cumulative = -3.65452e-06
ExecutionTime = 5.35 s  ClockTime = 5 s

Time = 10

DILUPBiCGStab:  Solving for Y, Initial residual = 0.0767517, Final residual = 9.98267e-07, No Iterations 65
DILUPBiCGStab:  Solving for Y, Initial residual = 0.0797246, Final residual = 8.84742e-07, No Iterations 65
DILUPBiCGStab:  Solving for Y, Initial residual = 0.0762773, Final residual = 9.8006e-07, No Iterations 64
DILUPBiCGStab:  Solving for Y, Initial residual = 0.0797247, Final residual = 5.5314e-08, No Iterations 67
DILUPBiCGStab:  Solving for Y, Initial residual = 0.0762771, Final residual = 1.09569e-07, No Iterations 66
DILUPBiCGStab:  Solving for Y, Initial residual = 0.0797238, Final residual = 9.87177e-08, No Iterations 66
DILUPBiCGStab:  Solving for Y, Initial residual = 0.0762771, Final residual = 1.12366e-07, No Iterations 66
DILUPBiCGStab:  Solving for Y, Initial residual = 0.0797235, Final residual = 2.10296e-07, No Iterations 67
DILUPBiCGStab:  Solving for Y, Initial residual = 0.0762771, Final residual = 8.26161e-07, No Iterations 66
DILUPBiCGStab:  Solving for Y, Initial residual = 0.0797226, Final residual = 5.01051e-07, No Iterations 66
DILUPBiCGStab:  Solving for Y, Initial residual = 0.0762771, Final residual = 4.58449e-07, No Iterations 66
DILUPBiCGStab:  Solving for Y, Initial residual = 0.0797231, Final residual = 2.54084e-07, No Iterations 66
DILUPBiCGStab:  Solving for Y, Initial residual = 0.076277, Final residual = 2.41049e-07, No Iterations 66
DILUPBiCGStab:  Solving for Y, Initial residual = 0.0797239, Final residual = 6.12228e-08, No Iterations 67
DILUPBiCGStab:  Solving for Y, Initial residual = 0.0762771, Final residual = 8.39291e-08, No Iterations 66
DILUPBiCGStab:  Solving for Y, Initial residual = 0.0797237, Final residual = 6.33918e-08, No Iterations 67
DILUPBiCGStab:  Solving for Y, Initial residual = 0.0762771, Final residual = 3.34006e-07, No Iterations 66
DILUPBiCGStab:  Solving for Y, Initial residual = 0.0797232, Final residual = 8.75357e-07, No Iterations 66
DILUPBiCGStab:  Solving for Y, Initial residual = 0.076277, Final residual = 6.01319e-07, No Iterations 66
DILUPBiCGStab:  Solving for Y, Initial residual = 0.0797229, Final residual = 9.06607e-07, No Iterations 67
DILUPBiCGStab:  Solving for Y, Initial residual = 0.0762772, Final residual = 7.038e-07, No Iterations 66
DILUPBiCGStab:  Solving for Y, Initial residual = 0.0797245, Final residual = 8.80755e-07, No Iterations 65
DILUPBiCGStab:  Solving for Y, Initial residual = 0.0762772, Final residual = 2.21012e-07, No Iterations 67
DILUPBiCGStab:  Solving for Y, Initial residual = 0.0797239, Final residual = 6.05974e-07, No Iterations 66
DILUPBiCGStab:  Solving for Y, Initial residual = 0.0762772, Final residual = 5.96367e-07, No Iterations 66
DILUPBiCGStab:  Solving for Y, Initial residual = 0.0797243, Final residual = 6.80751e-08, No Iterations 67
DILUPBiCGStab:  Solving for Y, Initial residual = 0.0762771, Final residual = 9.51564e-07, No Iterations 64
DILUPBiCGStab:  Solving for Y, Initial residual = 0.0797246, Final residual = 4.60475e-08, No Iterations 67
DILUPBiCGStab:  Solving for Y, Initial residual = 0.0762771, Final residual = 3.92301e-07, No Iterations 67
DILUPBiCGStab:  Solving for Y, Initial residual = 0.0797241, Final residual = 5.11815e-07, No Iterations 66
DILUPBiCGStab:  Solving for Y, Initial residual = 0.0762772, Final residual = 1.6277e-07, No Iterations 67
DILUPBiCGStab:  Solving for Y, Initial residual = 0.0797234, Final residual = 1.00196e-07, No Iterations 67
DILUPBiCGStab:  Solving for Y, Initial residual = 0.0762771, Final residual = 1.80719e-07, No Iterations 66
DILUPBiCGStab:  Solving for Y, Initial residual = 0.0797238, Final residual = 8.45779e-08, No Iterations 66
DILUPBiCGStab:  Solving for Y, Initial residual = 0.0762771, Final residual = 4.81873e-07, No Iterations 66
DILUPBiCGStab:  Solving for Y, Initial residual = 0.0797242, Final residual = 5.1234e-08, No Iterations 67
DILUPBiCGStab:  Solving for Y, Initial residual = 0.0762771, Final residual = 2.11272e-07, No Iterations 66
DILUPBiCGStab:  Solving for Y, Initial residual = 0.0797234, Final residual = 1.2302e-07, No Iterations 66
DILUPBiCGStab:  Solving for Y, Initial residual = 0.0762771, Final residual = 5.20754e-08, No Iterations 67
DILUPBiCGStab:  Solving for Y, Initial residual = 0.0797237, Final residual = 7.225e-08, No Iterations 66
DILUPBiCGStab:  Solving for Ux, Initial residual = 0.00769372, Final residual = 8.46114e-07, No Iterations 2
DILUPBiCGStab:  Solving for Uy, Initial residual = 0.00631403, Final residual = 5.61311e-07, No Iterations 2
DILUPBiCGStab:  Solving for T, Initial residual = 0.00299998, Final residual = 1.22984e-07, No Iterations 2
DICPCG:  Solving for p_rgh, Initial residual = 0.0493815, Final residual = 0.000462818, No Iterations 54
time step continuity errors : sum local = 1.04594e-05, global = 8.24871e-08, cumulative = -3.57203e-06
ExecutionTime = 5.95 s  ClockTime = 6 s

Time = 11

DILUPBiCGStab:  Solving for Y, Initial residual = 0.0768361, Final residual = 9.91867e-07, No Iterations 65
DILUPBiCGStab:  Solving for Y, Initial residual = 0.0798228, Final residual = 3.21276e-07, No Iterations 66
DILUPBiCGStab:  Solving for Y, Initial residual = 0.0763672, Final residual = 2.02957e-07, No Iterations 66
DILUPBiCGStab:  Solving for Y, Initial residual = 0.0798216, Final residual = 9.69189e-07, No Iterations 65
DILUPBiCGStab:  Solving for Y, Initial residual = 0.0763672, Final residual = 4.04858e-08, No Iterations 67
DILUPBiCGStab:  Solving for Y, Initial residual = 0.0798218, Final residual = 2.87883e-08, No Iterations 67
DILUPBiCGStab:  Solving for Y, Initial residual = 0.0763671, Final residual = 1.42355e-07, No Iterations 66
DILUPBiCGStab:  Solving for Y, Initial residual = 0.0798217, Final residual = 6.61972e-08, No Iterations 67
DILUPBiCGStab:  Solving for Y, Initial residual = 0.0763671, Final residual = 1.4491e-07, No Iterations 67
DILUPBiCGStab:  Solving for Y, Initial residual = 0.079822, Final residual = 3.46295e-07, No Iterations 66
DILUPBiCGStab:  Solving for Y, Initial residual = 0.0763671, Final residual = 5.45316e-08, No Iterations 67
DILUPBiCGStab:  Solving for Y, Initial residual = 0.0798218, Final residual = 2.91291e-08, No Iterations 67
DILUPBiCGStab:  Solving for Y, Initial residual = 0.0763671, Final residual = 4.32299e-07, No Iterations 66
DILUPBiCGStab:  Solving for Y, Initial residual = 0.0798223, Final residual = 6.49362e-08, No Iterations 66
DILUPBiCGStab:  Solving for Y, Initial residual = 0.0763671, Final residual = 2.173e-08, No Iterations 68
DILUPBiCGStab:  Solving for Y, Initial residual = 0.0798218, Final residual = 1.93988e-07, No Iterations 67
DILUPBiCGStab:  Solving for Y, Initial residual = 0.0763671, Final residual = 7.56008e-07, No Iterations 66
DILUPBiCGStab:  Solving for Y, Initial residual = 0.0798209, Final residual = 8.58867e-08, No Iterations 67
DILUPBiCGStab:  Solving for Y, Initial residual = 0.0763671, Final residual = 9.22911e-07, No Iterations 64
DILUPBiCGStab:  Solving for Y, Initial residual = 0.0798217, Final residual = 7.05096e-07, No Iterations 64
DILUPBiCGStab:  Solving for Y, Initial residual = 0.0763671, Final residual = 8.04334e-07, No Iterations 66
DILUPBiCGStab:  Solving for Y, Initial residual = 0.0798228, Final residual = 3.95226e-07, No Iterations 66
DILUPBiCGStab:  Solving for Y, Initial residual = 0.0763672, Final residual = 9.22721e-07, No Iterations 66
DILUPBiCGStab:  Solving for Y, Initial residual = 0.0798206, Final residual = 5.39747e-08, No Iterations 66
DILUPBiCGStab:  Solving for Y, Initial residual = 0.0763671, Final residual = 9.97152e-07, No Iterations 65
DILUPBiCGStab:  Solving for Y, Initial residual = 0.079823, Final residual = 8.68826e-07, No Iterations 66
DILUPBiCGStab:  Solving for Y, Initial residual = 0.0763672, Final residual = 4.81283e-08, No Iterations 67
DILUPBiCGStab:  Solving for Y, Initial residual = 0.0798218, Final residual = 7.4388e-07, No Iterations 66
DILUPBiCGStab:  Solving for Y, Initial residual = 0.0763672, Final residual = 9.7218e-07, No Iterations 66
DILUPBiCGStab:  Solving for Y, Initial residual = 0.0798206, Final residual = 2.70312e-08, No Iterations 67
DILUPBiCGStab:  Solving for Y, Initial residual = 0.0763671, Final residual = 8.31204e-07, No Iterations 65
DILUPBiCGStab:  Solving for Y, Initial residual = 0.0798228, Final residual = 2.59533e-07, No Iterations 67
DILUPBiCGStab:  Solving for Y, Initial residual = 0.0763672, Final residual = 4.7773e-07, No Iterations 66
DILUPBiCGStab:  Solving for Y, Initial residual = 0.0798224, Final residual = 8.35501e-07, No Iterations 67
DILUPBiCGStab:  Solving for Y, Initial residual = 0.076367, Final residual = 8.63057e-08, No Iterations 67
DILUPBiCGStab:  Solving for Y, Initial residual = 0.0798217, Final residual = 7.37055e-07, No Iterations 66
DILUPBiCGStab:  Solving for Y, Initial residual = 0.076367, Final residual = 2.86745e-07, No Iterations 66
DILUPBiCGStab:  Solving for Y, Initial residual = 0.0798222, Final residual = 2.17772e-07, No Iterations 66
DILUPBiCGStab:  Solving for Y, Initial residual = 0.0763671, Final residual = 1.48721e-07, No Iterations 67
DILUPBiCGStab:  Solving for Y, Initial residual = 0.079822, Final residual = 4.06993e-07, No Iterations 66
DILUPBiCGStab:  Solving for Ux, Initial residual = 0.00691674, Final residual = 3.76845e-07, No Iterations 2
DILUPBiCGStab:  Solving for Uy, Initial residual = 0.00513467, Final residual = 3.57051e-07, No Iterations 2
DILUPBiCGStab:  Solving for T, Initial residual = 0.0026574, Final residual = 1.08113e-07, No Iterations 2
DICPCG:  Solving for p_rgh, Initial residual = 0.0371347, Final residual = 0.000336705, No Iterations 28
time step continuity errors : sum local = 7.15365e-06, global = -6.91267e-07, cumulative = -4.2633e-06
ExecutionTime = 6.55 s  ClockTime = 6 s

Time = 12

DILUPBiCGStab:  Solving for Y, Initial residual = 0.0768945, Final residual = 4.94915e-08, No Iterations 68
DILUPBiCGStab:  Solving for Y, Initial residual = 0.0798976, Final residual = 7.5972e-07, No Iterations 66
DILUPBiCGStab:  Solving for Y, Initial residual = 0.076437, Final residual = 6.87114e-08, No Iterations 67
DILUPBiCGStab:  Solving for Y, Initial residual = 0.0798978, Final residual = 3.78868e-07, No Iterations 66
DILUPBiCGStab:  Solving for Y, Initial residual = 0.0764367, Final residual = 8.41687e-07, No Iterations 66
DILUPBiCGStab:  Solving for Y, Initial residual = 0.0798967, Final residual = 1.33784e-07, No Iterations 67
DILUPBiCGStab:  Solving for Y, Initial residual = 0.0764367, Final residual = 8.52046e-07, No Iterations 66
DILUPBiCGStab:  Solving for Y, Initial residual = 0.0798988, Final residual = 5.21992e-08, No Iterations 67
DILUPBiCGStab:  Solving for Y, Initial residual = 0.0764367, Final residual = 3.12138e-07, No Iterations 66
DILUPBiCGStab:  Solving for Y, Initial residual = 0.0798973, Final residual = 5.48435e-07, No Iterations 66
DILUPBiCGStab:  Solving for Y, Initial residual = 0.0764368, Final residual = 9.83074e-07, No Iterations 66
DILUPBiCGStab:  Solving for Y, Initial residual = 0.0798989, Final residual = 9.14278e-07, No Iterations 66
DILUPBiCGStab:  Solving for Y, Initial residual = 0.0764366, Final residual = 2.47208e-07, No Iterations 66
DILUPBiCGStab:  Solving for Y, Initial residual = 0.079898, Final residual = 8.32132e-07, No Iterations 66
DILUPBiCGStab:  Solving for Y, Initial residual = 0.0764366, Final residual = 5.49228e-08, No Iterations 66
DILUPBiCGStab:  Solving for Y, Initial residual = 0.0798977, Final residual = 4.5631e-07, No Iterations 66
DILUPBiCGStab:  Solving for Y, Initial residual = 0.0764367, Final residual = 4.90389e-07, No Iterations 67
DILUPBiCGStab:  Solving for Y, Initial residual = 0.0798983, Final residual = 3.53049e-07, No Iterations 67
DILUPBiCGStab:  Solving for Y, Initial residual = 0.0764368, Final residual = 6.6122e-07, No Iterations 66
DILUPBiCGStab:  Solving for Y, Initial residual = 0.0798969, Final residual = 5.93339e-07, No Iterations 66
DILUPBiCGStab:  Solving for Y, Initial residual = 0.0764366, Final residual = 6.01758e-08, No Iterations 67
DILUPBiCGStab:  Solving for Y, Initial residual = 0.0798977, Final residual = 7.33689e-07, No Iterations 65
DILUPBiCGStab:  Solving for Y, Initial residual = 0.0764368, Final residual = 1.78441e-07, No Iterations 66
DILUPBiCGStab:  Solving for Y, Initial residual = 0.0798975, Final residual = 9.93397e-07, No Iterations 64
DILUPBiCGStab:  Solving for Y, Initial residual = 0.0764367, Final residual = 1.28947e-07, No Iterations 67
DILUPBiCGStab:  Solving for Y, Initial residual = 0.0798979, Final residual = 9.25688e-07, No Iterations 63
DILUPBiCGStab:  Solving for Y, Initial residual = 0.0764369, Final residual = 6.69938e-07, No Iterations 66
DILUPBiCGStab:  Solving for Y, Initial residual = 0.0798985, Final residual = 2.63599e-08, No Iterations 67
DILUPBiCGStab:  Solving for Y, Initial residual = 0.0764367, Final residual = 9.70927e-07, No Iterations 65
DILUPBiCGStab:  Solving for Y, Initial residual = 0.0798989, Final residual = 9.22414e-07, No Iterations 64
DILUPBiCGStab:  Solving for Y, Initial residual = 0.0764367, Final residual = 9.89172e-08, No Iterations 67
DILUPBiCGStab:  Solving for Y, Initial residual = 0.0798978, Final residual = 9.17775e-07, No Iterations 66
DILUPBiCGStab:  Solving for Y, Initial residual = 0.0764368, Final residual = 7.67597e-07, No Iterations 65
DILUPBiCGStab:  Solving for Y, Initial residual = 0.0798987, Final residual = 2.34846e-08, No Iterations 68
DILUPBiCGStab:  Solving for Y, Initial residual = 0.0764367, Final residual = 6.37063e-07, No Iterations 66
DILUPBiCGStab:  Solving for Y, Initial residual = 0.0798969, Final residual = 9.80782e-07, No Iterations 65
DILUPBiCGStab:  Solving for Y, Initial residual = 0.0764368, Final residual = 8.54086e-07, No Iterations 64
DILUPBiCGStab:  Solving for Y, Initial residual = 0.0798984, Final residual = 3.61678e-08, No Iterations 67
DILUPBiCGStab:  Solving for Y, Initial residual = 0.0764367, Final residual = 6.54308e-07, No Iterations 64
DILUPBiCGStab:  Solving for Y, Initial residual = 0.0798982, Final residual = 9.99366e-07, No Iterations 65
DILUPBiCGStab:  Solving for Ux, Initial residual = 0.00685846, Final residual = 4.51618e-07, No Iterations 2
DILUPBiCGStab:  Solving for Uy, Initial residual = 0.00472064, Final residual = 3.29146e-07, No Iterations 2
DILUPBiCGStab:  Solving for T, Initial residual = 0.00237954, Final residual = 9.67067e-08, No Iterations 2
DICPCG:  Solving for p_rgh, Initial residual = 0.0292405, Final residual = 0.000267275, No Iterations 36
time step continuity errors : sum local = 5.68578e-06, global = 1.39734e-06, cumulative = -2.86596e-06
ExecutionTime = 7.14 s  ClockTime = 7 s

Time = 13

DILUPBiCGStab:  Solving for Y, Initial residual = 0.0769406, Final residual = 6.82907e-07, No Iterations 65
DILUPBiCGStab:  Solving for Y, Initial residual = 0.0799511, Final residual = 1.66277e-07, No Iterations 66
DILUPBiCGStab:  Solving for Y, Initial residual = 0.0764853, Final residual = 3.42253e-08, No Iterations 67
DILUPBiCGStab:  Solving for Y, Initial residual = 0.0799504, Final residual = 1.62108e-07, No Iterations 67
DILUPBiCGStab:  Solving for Y, Initial residual = 0.0764851, Final residual = 3.34556e-08, No Iterations 67
DILUPBiCGStab:  Solving for Y, Initial residual = 0.0799504, Final residual = 2.79632e-08, No Iterations 67
DILUPBiCGStab:  Solving for Y, Initial residual = 0.0764852, Final residual = 1.05806e-07, No Iterations 66
DILUPBiCGStab:  Solving for Y, Initial residual = 0.0799505, Final residual = 6.41079e-07, No Iterations 65
DILUPBiCGStab:  Solving for Y, Initial residual = 0.0764851, Final residual = 3.55052e-07, No Iterations 66
DILUPBiCGStab:  Solving for Y, Initial residual = 0.0799508, Final residual = 9.26298e-07, No Iterations 66
DILUPBiCGStab:  Solving for Y, Initial residual = 0.0764853, Final residual = 7.31203e-08, No Iterations 66
DILUPBiCGStab:  Solving for Y, Initial residual = 0.0799503, Final residual = 7.47428e-07, No Iterations 66
DILUPBiCGStab:  Solving for Y, Initial residual = 0.0764851, Final residual = 3.37912e-07, No Iterations 67
DILUPBiCGStab:  Solving for Y, Initial residual = 0.0799508, Final residual = 3.37751e-07, No Iterations 66
DILUPBiCGStab:  Solving for Y, Initial residual = 0.0764851, Final residual = 6.49865e-07, No Iterations 66
DILUPBiCGStab:  Solving for Y, Initial residual = 0.0799496, Final residual = 9.12019e-07, No Iterations 64
DILUPBiCGStab:  Solving for Y, Initial residual = 0.0764851, Final residual = 8.76584e-07, No Iterations 65
DILUPBiCGStab:  Solving for Y, Initial residual = 0.0799495, Final residual = 5.86075e-08, No Iterations 67
DILUPBiCGStab:  Solving for Y, Initial residual = 0.0764851, Final residual = 3.41761e-08, No Iterations 67
DILUPBiCGStab:  Solving for Y, Initial residual = 0.0799504, Final residual = 2.6276e-07, No Iterations 66
DILUPBiCGStab:  Solving for Y, Initial residual = 0.0764852, Final residual = 7.29706e-08, No Iterations 67
DILUPBiCGStab:  Solving for Y, Initial residual = 0.0799503, Final residual = 3.58255e-08, No Iterations 67
DILUPBiCGStab:  Solving for Y, Initial residual = 0.0764852, Final residual = 2.36643e-07, No Iterations 66
DILUPBiCGStab:  Solving for Y, Initial residual = 0.0799507, Final residual = 2.00597e-07, No Iterations 66
DILUPBiCGStab:  Solving for Y, Initial residual = 0.0764852, Final residual = 1.48601e-07, No Iterations 66
DILUPBiCGStab:  Solving for Y, Initial residual = 0.0799502, Final residual = 4.11686e-07, No Iterations 65
DILUPBiCGStab:  Solving for Y, Initial residual = 0.0764851, Final residual = 4.70337e-07, No Iterations 65
DILUPBiCGStab:  Solving for Y, Initial residual = 0.0799509, Final residual = 8.36554e-07, No Iterations 64
DILUPBiCGStab:  Solving for Y, Initial residual = 0.0764851, Final residual = 7.0554e-07, No Iterations 65
DILUPBiCGStab:  Solving for Y, Initial residual = 0.0799497, Final residual = 7.76706e-07, No Iterations 66
DILUPBiCGStab:  Solving for Y, Initial residual = 0.0764851, Final residual = 4.19861e-07, No Iterations 66
DILUPBiCGStab:  Solving for Y, Initial residual = 0.0799498, Final residual = 4.82179e-07, No Iterations 66
DILUPBiCGStab:  Solving for Y, Initial residual = 0.0764851, Final residual = 3.07346e-08, No Iterations 67
DILUPBiCGStab:  Solving for Y, Initial residual = 0.0799504, Final residual = 9.72211e-07, No Iterations 65
DILUPBiCGStab:  Solving for Y, Initial residual = 0.0764853, Final residual = 4.37916e-08, No Iterations 67
DILUPBiCGStab:  Solving for Y, Initial residual = 0.0799503, Final residual = 7.18891e-08, No Iterations 67
DILUPBiCGStab:  Solving for Y, Initial residual = 0.0764852, Final residual = 3.96228e-08, No Iterations 67
DILUPBiCGStab:  Solving for Y, Initial residual = 0.0799504, Final residual = 3.24462e-08, No Iterations 67
DILUPBiCGStab:  Solving for Y, Initial residual = 0.0764852, Final residual = 1.47468e-07, No Iterations 66
DILUPBiCGStab:  Solving for Y, Initial residual = 0.0799505, Final residual = 6.70462e-07, No Iterations 66
DILUPBiCGStab:  Solving for Ux, Initial residual = 0.0065911, Final residual = 4.40167e-07, No Iterations 2
DILUPBiCGStab:  Solving for Uy, Initial residual = 0.00432848, Final residual = 2.9822e-07, No Iterations 2
DILUPBiCGStab:  Solving for T, Initial residual = 0.00215019, Final residual = 8.7663e-08, No Iterations 2
DICPCG:  Solving for p_rgh, Initial residual = 0.0240264, Final residual = 0.000235028, No Iterations 45
time step continuity errors : sum local = 4.99668e-06, global = -4.00182e-08, cumulative = -2.90598e-06
ExecutionTime = 7.73 s  ClockTime = 8 s

Time = 14

DILUPBiCGStab:  Solving for Y, Initial residual = 0.076961, Final residual = 5.02848e-07, No Iterations 66
DILUPBiCGStab:  Solving for Y, Initial residual = 0.0799809, Final residual = 5.31222e-07, No Iterations 66
DILUPBiCGStab:  Solving for Y, Initial residual = 0.0765132, Final residual = 9.62469e-08, No Iterations 65
DILUPBiCGStab:  Solving for Y, Initial residual = 0.0799804, Final residual = 1.62906e-07, No Iterations 66
DILUPBiCGStab:  Solving for Y, Initial residual = 0.076513, Final residual = 1.56687e-07, No Iterations 66
DILUPBiCGStab:  Solving for Y, Initial residual = 0.0799802, Final residual = 1.58727e-07, No Iterations 67
DILUPBiCGStab:  Solving for Y, Initial residual = 0.076513, Final residual = 1.84763e-07, No Iterations 66
DILUPBiCGStab:  Solving for Y, Initial residual = 0.0799806, Final residual = 8.64989e-08, No Iterations 66
DILUPBiCGStab:  Solving for Y, Initial residual = 0.076513, Final residual = 8.52628e-08, No Iterations 67
DILUPBiCGStab:  Solving for Y, Initial residual = 0.0799805, Final residual = 5.56349e-08, No Iterations 67
DILUPBiCGStab:  Solving for Y, Initial residual = 0.0765129, Final residual = 1.49922e-07, No Iterations 66
DILUPBiCGStab:  Solving for Y, Initial residual = 0.0799802, Final residual = 7.52528e-07, No Iterations 66
DILUPBiCGStab:  Solving for Y, Initial residual = 0.0765129, Final residual = 9.69926e-07, No Iterations 64
DILUPBiCGStab:  Solving for Y, Initial residual = 0.0799817, Final residual = 8.86497e-08, No Iterations 67
DILUPBiCGStab:  Solving for Y, Initial residual = 0.076513, Final residual = 8.92755e-07, No Iterations 65
DILUPBiCGStab:  Solving for Y, Initial residual = 0.0799815, Final residual = 1.24416e-07, No Iterations 67
DILUPBiCGStab:  Solving for Y, Initial residual = 0.0765129, Final residual = 4.68537e-07, No Iterations 65
DILUPBiCGStab:  Solving for Y, Initial residual = 0.0799807, Final residual = 1.9014e-07, No Iterations 66
DILUPBiCGStab:  Solving for Y, Initial residual = 0.0765129, Final residual = 8.85803e-07, No Iterations 66
DILUPBiCGStab:  Solving for Y, Initial residual = 0.0799815, Final residual = 7.69436e-07, No Iterations 66
DILUPBiCGStab:  Solving for Y, Initial residual = 0.0765129, Final residual = 4.94999e-07, No Iterations 66
DILUPBiCGStab:  Solving for Y, Initial residual = 0.079981, Final residual = 2.70537e-08, No Iterations 68
DILUPBiCGStab:  Solving for Y, Initial residual = 0.076513, Final residual = 2.22522e-07, No Iterations 66
DILUPBiCGStab:  Solving for Y, Initial residual = 0.0799807, Final residual = 8.4647e-07, No Iterations 66
DILUPBiCGStab:  Solving for Y, Initial residual = 0.076513, Final residual = 1.48647e-07, No Iterations 66
DILUPBiCGStab:  Solving for Y, Initial residual = 0.0799802, Final residual = 1.02447e-07, No Iterations 67
DILUPBiCGStab:  Solving for Y, Initial residual = 0.0765129, Final residual = 6.14099e-07, No Iterations 65
DILUPBiCGStab:  Solving for Y, Initial residual = 0.0799811, Final residual = 2.20333e-07, No Iterations 67
DILUPBiCGStab:  Solving for Y, Initial residual = 0.076513, Final residual = 5.98231e-08, No Iterations 67
DILUPBiCGStab:  Solving for Y, Initial residual = 0.0799805, Final residual = 9.92686e-07, No Iterations 64
DILUPBiCGStab:  Solving for Y, Initial residual = 0.076513, Final residual = 4.80642e-07, No Iterations 66
DILUPBiCGStab:  Solving for Y, Initial residual = 0.079981, Final residual = 2.38107e-07, No Iterations 66
DILUPBiCGStab:  Solving for Y, Initial residual = 0.0765129, Final residual = 4.91932e-07, No Iterations 65
DILUPBiCGStab:  Solving for Y, Initial residual = 0.079981, Final residual = 3.19818e-07, No Iterations 65
DILUPBiCGStab:  Solving for Y, Initial residual = 0.076513, Final residual = 6.46829e-07, No Iterations 66
DILUPBiCGStab:  Solving for Y, Initial residual = 0.0799812, Final residual = 6.2649e-07, No Iterations 66
DILUPBiCGStab:  Solving for Y, Initial residual = 0.076513, Final residual = 9.77524e-07, No Iterations 67
DILUPBiCGStab:  Solving for Y, Initial residual = 0.0799816, Final residual = 2.87517e-07, No Iterations 67
DILUPBiCGStab:  Solving for Y, Initial residual = 0.076513, Final residual = 1.30834e-07, No Iterations 66
DILUPBiCGStab:  Solving for Y, Initial residual = 0.0799805, Final residual = 3.82911e-07, No Iterations 66
DILUPBiCGStab:  Solving for Ux, Initial residual = 0.00640933, Final residual = 3.96302e-07, No Iterations 2
DILUPBiCGStab:  Solving for Uy, Initial residual = 0.00424455, Final residual = 2.88883e-07, No Iterations 2
DILUPBiCGStab:  Solving for T, Initial residual = 0.00195821, Final residual = 8.0766e-08, No Iterations 2
DICPCG:  Solving for p_rgh, Initial residual = 0.0206482, Final residual = 0.000190988, No Iterations 24
time step continuity errors : sum local = 4.07525e-06, global = -1.30434e-07, cumulative = -3.03641e-06
ExecutionTime = 8.32 s  ClockTime = 8 s

Time = 15

DILUPBiCGStab:  Solving for Y, Initial residual = 0.0769688, Final residual = 4.60625e-07, No Iterations 67
DILUPBiCGStab:  Solving for Y, Initial residual = 0.0799894, Final residual = 3.54245e-07, No Iterations 64
DILUPBiCGStab:  Solving for Y, Initial residual = 0.0765213, Final residual = 3.46795e-07, No Iterations 66
DILUPBiCGStab:  Solving for Y, Initial residual = 0.0799885, Final residual = 8.80877e-08, No Iterations 67
DILUPBiCGStab:  Solving for Y, Initial residual = 0.0765212, Final residual = 2.47083e-07, No Iterations 66
DILUPBiCGStab:  Solving for Y, Initial residual = 0.0799893, Final residual = 6.18656e-08, No Iterations 66
DILUPBiCGStab:  Solving for Y, Initial residual = 0.0765212, Final residual = 1.32998e-07, No Iterations 66
DILUPBiCGStab:  Solving for Y, Initial residual = 0.0799891, Final residual = 2.07153e-07, No Iterations 66
DILUPBiCGStab:  Solving for Y, Initial residual = 0.0765212, Final residual = 3.48637e-08, No Iterations 67
DILUPBiCGStab:  Solving for Y, Initial residual = 0.079989, Final residual = 9.33142e-07, No Iterations 65
DILUPBiCGStab:  Solving for Y, Initial residual = 0.0765213, Final residual = 9.14264e-07, No Iterations 63
DILUPBiCGStab:  Solving for Y, Initial residual = 0.0799898, Final residual = 5.95007e-07, No Iterations 66
DILUPBiCGStab:  Solving for Y, Initial residual = 0.0765212, Final residual = 4.23013e-08, No Iterations 67
DILUPBiCGStab:  Solving for Y, Initial residual = 0.079989, Final residual = 4.46969e-07, No Iterations 66
DILUPBiCGStab:  Solving for Y, Initial residual = 0.0765212, Final residual = 4.68981e-07, No Iterations 65
DILUPBiCGStab:  Solving for Y, Initial residual = 0.0799896, Final residual = 9.78251e-07, No Iterations 66
DILUPBiCGStab:  Solving for Y, Initial residual = 0.0765211, Final residual = 1.21166e-07, No Iterations 66
DILUPBiCGStab:  Solving for Y, Initial residual = 0.0799889, Final residual = 6.85673e-07, No Iterations 63
DILUPBiCGStab:  Solving for Y, Initial residual = 0.0765213, Final residual = 7.73824e-07, No Iterations 64
DILUPBiCGStab:  Solving for Y, Initial residual = 0.0799896, Final residual = 5.80726e-07, No Iterations 66
DILUPBiCGStab:  Solving for Y, Initial residual = 0.0765213, Final residual = 3.09291e-07, No Iterations 65
DILUPBiCGStab:  Solving for Y, Initial residual = 0.0799892, Final residual = 2.89903e-07, No Iterations 66
DILUPBiCGStab:  Solving for Y, Initial residual = 0.0765212, Final residual = 1.16006e-07, No Iterations 66
DILUPBiCGStab:  Solving for Y, Initial residual = 0.0799889, Final residual = 2.75877e-07, No Iterations 66
DILUPBiCGStab:  Solving for Y, Initial residual = 0.0765212, Final residual = 6.20279e-07, No Iterations 66
DILUPBiCGStab:  Solving for Y, Initial residual = 0.0799897, Final residual = 3.55265e-07, No Iterations 66
DILUPBiCGStab:  Solving for Y, Initial residual = 0.0765212, Final residual = 9.99717e-07, No Iterations 65
DILUPBiCGStab:  Solving for Y, Initial residual = 0.0799902, Final residual = 3.34423e-07, No Iterations 66
DILUPBiCGStab:  Solving for Y, Initial residual = 0.0765213, Final residual = 5.93912e-08, No Iterations 67
DILUPBiCGStab:  Solving for Y, Initial residual = 0.0799889, Final residual = 9.937e-07, No Iterations 64
DILUPBiCGStab:  Solving for Y, Initial residual = 0.0765211, Final residual = 3.48465e-07, No Iterations 66
DILUPBiCGStab:  Solving for Y, Initial residual = 0.0799886, Final residual = 2.54938e-08, No Iterations 68
DILUPBiCGStab:  Solving for Y, Initial residual = 0.0765212, Final residual = 1.06166e-07, No Iterations 66
DILUPBiCGStab:  Solving for Y, Initial residual = 0.0799891, Final residual = 6.85183e-07, No Iterations 66
DILUPBiCGStab:  Solving for Y, Initial residual = 0.0765211, Final residual = 6.57688e-08, No Iterations 66
DILUPBiCGStab:  Solving for Y, Initial residual = 0.0799889, Final residual = 6.25253e-07, No Iterations 65
DILUPBiCGStab:  Solving for Y, Initial residual = 0.0765211, Final residual = 2.05716e-07, No Iterations 66
DILUPBiCGStab:  Solving for Y, Initial residual = 0.0799887, Final residual = 9.09004e-07, No Iterations 66
DILUPBiCGStab:  Solving for Y, Initial residual = 0.0765213, Final residual = 7.4509e-08, No Iterations 67
DILUPBiCGStab:  Solving for Y, Initial residual = 0.0799891, Final residual = 8.16102e-07, No Iterations 66
DILUPBiCGStab:  Solving for Ux, Initial residual = 0.00621114, Final residual = 3.70294e-07, No Iterations 2
DILUPBiCGStab:  Solving for Uy, Initial residual = 0.00413765, Final residual = 2.83896e-07, No Iterations 2
DILUPBiCGStab:  Solving for T, Initial residual = 0.00179553, Final residual = 7.54639e-08, No Iterations 2
DICPCG:  Solving for p_rgh, Initial residual = 0.0182208, Final residual = 0.000177184, No Iterations 42
time step continuity errors : sum local = 3.74712e-06, global = -4.99526e-08, cumulative = -3.08636e-06
ExecutionTime = 8.92 s  ClockTime = 9 s

Time = 16

DILUPBiCGStab:  Solving for Y, Initial residual = 0.0769556, Final residual = 5.57059e-08, No Iterations 67
DILUPBiCGStab:  Solving for Y, Initial residual = 0.0799772, Final residual = 7.02352e-08, No Iterations 67
DILUPBiCGStab:  Solving for Y, Initial residual = 0.0765111, Final residual = 2.40095e-07, No Iterations 66
DILUPBiCGStab:  Solving for Y, Initial residual = 0.079977, Final residual = 1.65297e-07, No Iterations 66
DILUPBiCGStab:  Solving for Y, Initial residual = 0.076511, Final residual = 4.32244e-08, No Iterations 67
DILUPBiCGStab:  Solving for Y, Initial residual = 0.0799774, Final residual = 4.64383e-08, No Iterations 67
DILUPBiCGStab:  Solving for Y, Initial residual = 0.076511, Final residual = 2.98524e-08, No Iterations 67
DILUPBiCGStab:  Solving for Y, Initial residual = 0.0799773, Final residual = 4.21904e-07, No Iterations 66
DILUPBiCGStab:  Solving for Y, Initial residual = 0.0765109, Final residual = 9.39755e-07, No Iterations 64
DILUPBiCGStab:  Solving for Y, Initial residual = 0.0799774, Final residual = 4.38187e-07, No Iterations 66
DILUPBiCGStab:  Solving for Y, Initial residual = 0.076511, Final residual = 2.76489e-07, No Iterations 67
DILUPBiCGStab:  Solving for Y, Initial residual = 0.0799777, Final residual = 7.63688e-07, No Iterations 66
DILUPBiCGStab:  Solving for Y, Initial residual = 0.076511, Final residual = 9.71277e-07, No Iterations 65
DILUPBiCGStab:  Solving for Y, Initial residual = 0.0799785, Final residual = 7.59016e-08, No Iterations 67
DILUPBiCGStab:  Solving for Y, Initial residual = 0.076511, Final residual = 9.74853e-07, No Iterations 64
DILUPBiCGStab:  Solving for Y, Initial residual = 0.0799778, Final residual = 6.59127e-07, No Iterations 66
DILUPBiCGStab:  Solving for Y, Initial residual = 0.076511, Final residual = 2.77674e-07, No Iterations 66
DILUPBiCGStab:  Solving for Y, Initial residual = 0.079977, Final residual = 3.8812e-08, No Iterations 67
DILUPBiCGStab:  Solving for Y, Initial residual = 0.076511, Final residual = 9.30027e-07, No Iterations 65
DILUPBiCGStab:  Solving for Y, Initial residual = 0.0799785, Final residual = 8.97102e-07, No Iterations 67
DILUPBiCGStab:  Solving for Y, Initial residual = 0.0765111, Final residual = 9.53018e-07, No Iterations 65
DILUPBiCGStab:  Solving for Y, Initial residual = 0.0799785, Final residual = 8.66327e-07, No Iterations 66
DILUPBiCGStab:  Solving for Y, Initial residual = 0.0765111, Final residual = 7.3631e-08, No Iterations 66
DILUPBiCGStab:  Solving for Y, Initial residual = 0.0799773, Final residual = 7.32683e-07, No Iterations 66
DILUPBiCGStab:  Solving for Y, Initial residual = 0.0765109, Final residual = 1.09562e-07, No Iterations 66
DILUPBiCGStab:  Solving for Y, Initial residual = 0.0799774, Final residual = 6.13165e-07, No Iterations 65
DILUPBiCGStab:  Solving for Y, Initial residual = 0.076511, Final residual = 5.95297e-07, No Iterations 66
DILUPBiCGStab:  Solving for Y, Initial residual = 0.0799766, Final residual = 9.12871e-07, No Iterations 66
DILUPBiCGStab:  Solving for Y, Initial residual = 0.0765109, Final residual = 1.08613e-07, No Iterations 66
DILUPBiCGStab:  Solving for Y, Initial residual = 0.0799774, Final residual = 9.97938e-07, No Iterations 66
DILUPBiCGStab:  Solving for Y, Initial residual = 0.0765111, Final residual = 8.97758e-07, No Iterations 66
DILUPBiCGStab:  Solving for Y, Initial residual = 0.0799762, Final residual = 6.0389e-08, No Iterations 66
DILUPBiCGStab:  Solving for Y, Initial residual = 0.0765109, Final residual = 1.51412e-07, No Iterations 66
DILUPBiCGStab:  Solving for Y, Initial residual = 0.0799775, Final residual = 5.16634e-07, No Iterations 66
DILUPBiCGStab:  Solving for Y, Initial residual = 0.0765109, Final residual = 3.814e-08, No Iterations 67
[...]
DILUPBiCGStab:  Solving for Y, Initial residual = 0.0610329, Final residual = 2.12949e-07, No Iterations 67
DILUPBiCGStab:  Solving for Y, Initial residual = 0.0631451, Final residual = 1.35827e-07, No Iterations 67
DILUPBiCGStab:  Solving for Y, Initial residual = 0.0610329, Final residual = 4.27294e-07, No Iterations 66
DILUPBiCGStab:  Solving for Y, Initial residual = 0.0631454, Final residual = 5.65696e-07, No Iterations 65
DILUPBiCGStab:  Solving for Y, Initial residual = 0.0610329, Final residual = 9.76428e-07, No Iterations 65
DILUPBiCGStab:  Solving for Y, Initial residual = 0.063146, Final residual = 5.16475e-07, No Iterations 66
DILUPBiCGStab:  Solving for Y, Initial residual = 0.0610329, Final residual = 4.43047e-07, No Iterations 66
DILUPBiCGStab:  Solving for Y, Initial residual = 0.0631454, Final residual = 9.86896e-07, No Iterations 65
DILUPBiCGStab:  Solving for Y, Initial residual = 0.061033, Final residual = 8.7151e-07, No Iterations 64
DILUPBiCGStab:  Solving for Y, Initial residual = 0.0631448, Final residual = 6.03489e-07, No Iterations 65
DILUPBiCGStab:  Solving for Y, Initial residual = 0.0610328, Final residual = 4.29783e-07, No Iterations 66
DILUPBiCGStab:  Solving for Y, Initial residual = 0.0631454, Final residual = 1.35948e-07, No Iterations 67
DILUPBiCGStab:  Solving for Y, Initial residual = 0.0610329, Final residual = 8.33517e-07, No Iterations 65
DILUPBiCGStab:  Solving for Y, Initial residual = 0.0631458, Final residual = 2.23332e-07, No Iterations 66
DILUPBiCGStab:  Solving for Y, Initial residual = 0.0610329, Final residual = 6.05021e-07, No Iterations 65
DILUPBiCGStab:  Solving for Y, Initial residual = 0.0631453, Final residual = 7.12872e-07, No Iterations 65
DILUPBiCGStab:  Solving for Y, Initial residual = 0.061033, Final residual = 1.785e-07, No Iterations 66
DILUPBiCGStab:  Solving for Y, Initial residual = 0.0631451, Final residual = 8.78301e-07, No Iterations 65
DILUPBiCGStab:  Solving for Y, Initial residual = 0.061033, Final residual = 9.98904e-07, No Iterations 65
DILUPBiCGStab:  Solving for Y, Initial residual = 0.063146, Final residual = 8.70621e-07, No Iterations 65
DILUPBiCGStab:  Solving for Y, Initial residual = 0.061033, Final residual = 2.08566e-07, No Iterations 66
DILUPBiCGStab:  Solving for Y, Initial residual = 0.0631451, Final residual = 1.24696e-07, No Iterations 66
DILUPBiCGStab:  Solving for Y, Initial residual = 0.0610329, Final residual = 9.94873e-07, No Iterations 62
DILUPBiCGStab:  Solving for Y, Initial residual = 0.0631455, Final residual = 2.45365e-07, No Iterations 67
DILUPBiCGStab:  Solving for Y, Initial residual = 0.0610329, Final residual = 9.85766e-07, No Iterations 65
DILUPBiCGStab:  Solving for Y, Initial residual = 0.063146, Final residual = 1.43631e-07, No Iterations 66
DILUPBiCGStab:  Solving for Y, Initial residual = 0.0610329, Final residual = 5.82778e-07, No Iterations 66
DILUPBiCGStab:  Solving for Y, Initial residual = 0.0631455, Final residual = 8.49407e-07, No Iterations 65
DILUPBiCGStab:  Solving for Y, Initial residual = 0.061033, Final residual = 9.28471e-07, No Iterations 66
DILUPBiCGStab:  Solving for Y, Initial residual = 0.0631459, Final residual = 7.58239e-07, No Iterations 66
DILUPBiCGStab:  Solving for Y, Initial residual = 0.061033, Final residual = 8.56215e-07, No Iterations 64
DILUPBiCGStab:  Solving for Y, Initial residual = 0.0631457, Final residual = 6.90036e-07, No Iterations 64
DILUPBiCGStab:  Solving for Y, Initial residual = 0.0610329, Final residual = 9.03074e-07, No Iterations 64
DILUPBiCGStab:  Solving for Y, Initial residual = 0.0631456, Final residual = 9.17443e-07, No Iterations 64
DILUPBiCGStab:  Solving for Y, Initial residual = 0.0610327, Final residual = 9.25365e-07, No Iterations 65
DILUPBiCGStab:  Solving for Y, Initial residual = 0.0631459, Final residual = 3.98075e-07, No Iterations 65
DILUPBiCGStab:  Solving for Y, Initial residual = 0.0610329, Final residual = 9.96062e-07, No Iterations 64
DILUPBiCGStab:  Solving for Y, Initial residual = 0.0631447, Final residual = 9.85427e-07, No Iterations 65
DILUPBiCGStab:  Solving for Ux, Initial residual = 8.21813e-05, Final residual = 9.18274e-08, No Iterations 1
DILUPBiCGStab:  Solving for Uy, Initial residual = 0.00013815, Final residual = 1.85792e-07, No Iterations 1
DILUPBiCGStab:  Solving for T, Initial residual = 7.2451e-06, Final residual = 9.61089e-07, No Iterations 1
DICPCG:  Solving for p_rgh, Initial residual = 0.000145681, Final residual = 1.36472e-06, No Iterations 49
time step continuity errors : sum local = 2.67201e-08, global = -6.33736e-09, cumulative = -5.11869e-06
ExecutionTime = 350.96 s  ClockTime = 351 s

Time = 598

DILUPBiCGStab:  Solving for Y, Initial residual = 0.0610355, Final residual = 8.16684e-07, No Iterations 65
DILUPBiCGStab:  Solving for Y, Initial residual = 0.0631474, Final residual = 9.97166e-07, No Iterations 65
DILUPBiCGStab:  Solving for Y, Initial residual = 0.0610356, Final residual = 9.55626e-07, No Iterations 65
DILUPBiCGStab:  Solving for Y, Initial residual = 0.0631488, Final residual = 1.89833e-07, No Iterations 66
DILUPBiCGStab:  Solving for Y, Initial residual = 0.0610355, Final residual = 9.29972e-07, No Iterations 65
DILUPBiCGStab:  Solving for Y, Initial residual = 0.0631488, Final residual = 8.06278e-07, No Iterations 64
DILUPBiCGStab:  Solving for Y, Initial residual = 0.0610354, Final residual = 4.89028e-07, No Iterations 65
DILUPBiCGStab:  Solving for Y, Initial residual = 0.0631481, Final residual = 2.46737e-07, No Iterations 66
DILUPBiCGStab:  Solving for Y, Initial residual = 0.0610355, Final residual = 6.61004e-07, No Iterations 63
DILUPBiCGStab:  Solving for Y, Initial residual = 0.0631484, Final residual = 1.96306e-07, No Iterations 66
DILUPBiCGStab:  Solving for Y, Initial residual = 0.0610355, Final residual = 1.54193e-07, No Iterations 66
DILUPBiCGStab:  Solving for Y, Initial residual = 0.0631478, Final residual = 1.43376e-07, No Iterations 66
DILUPBiCGStab:  Solving for Y, Initial residual = 0.0610355, Final residual = 1.60942e-07, No Iterations 67
DILUPBiCGStab:  Solving for Y, Initial residual = 0.0631479, Final residual = 8.31263e-07, No Iterations 65
DILUPBiCGStab:  Solving for Y, Initial residual = 0.0610356, Final residual = 1.33448e-07, No Iterations 66
DILUPBiCGStab:  Solving for Y, Initial residual = 0.0631477, Final residual = 9.99665e-07, No Iterations 65
DILUPBiCGStab:  Solving for Y, Initial residual = 0.0610356, Final residual = 5.32047e-07, No Iterations 66
DILUPBiCGStab:  Solving for Y, Initial residual = 0.0631483, Final residual = 3.97958e-07, No Iterations 66
DILUPBiCGStab:  Solving for Y, Initial residual = 0.0610356, Final residual = 5.89426e-07, No Iterations 66
DILUPBiCGStab:  Solving for Y, Initial residual = 0.0631484, Final residual = 9.20612e-07, No Iterations 65
DILUPBiCGStab:  Solving for Y, Initial residual = 0.0610356, Final residual = 8.79198e-07, No Iterations 64
DILUPBiCGStab:  Solving for Y, Initial residual = 0.0631486, Final residual = 6.53032e-07, No Iterations 65
DILUPBiCGStab:  Solving for Y, Initial residual = 0.0610356, Final residual = 9.36908e-08, No Iterations 68
DILUPBiCGStab:  Solving for Y, Initial residual = 0.0631478, Final residual = 4.1117e-07, No Iterations 66
DILUPBiCGStab:  Solving for Y, Initial residual = 0.0610355, Final residual = 7.93569e-07, No Iterations 65
DILUPBiCGStab:  Solving for Y, Initial residual = 0.0631486, Final residual = 1.23584e-07, No Iterations 67
DILUPBiCGStab:  Solving for Y, Initial residual = 0.0610355, Final residual = 1.5909e-07, No Iterations 66
DILUPBiCGStab:  Solving for Y, Initial residual = 0.0631479, Final residual = 2.5876e-07, No Iterations 66
DILUPBiCGStab:  Solving for Y, Initial residual = 0.0610355, Final residual = 8.37493e-07, No Iterations 65
DILUPBiCGStab:  Solving for Y, Initial residual = 0.0631487, Final residual = 9.82965e-07, No Iterations 65
DILUPBiCGStab:  Solving for Y, Initial residual = 0.0610356, Final residual = 5.93478e-07, No Iterations 66
DILUPBiCGStab:  Solving for Y, Initial residual = 0.0631484, Final residual = 9.28193e-07, No Iterations 64
DILUPBiCGStab:  Solving for Y, Initial residual = 0.0610355, Final residual = 8.73047e-07, No Iterations 65
DILUPBiCGStab:  Solving for Y, Initial residual = 0.0631487, Final residual = 1.33546e-07, No Iterations 67
DILUPBiCGStab:  Solving for Y, Initial residual = 0.0610355, Final residual = 9.34257e-07, No Iterations 65
DILUPBiCGStab:  Solving for Y, Initial residual = 0.0631487, Final residual = 1.34932e-07, No Iterations 67
DILUPBiCGStab:  Solving for Y, Initial residual = 0.0610355, Final residual = 4.83376e-07, No Iterations 66
DILUPBiCGStab:  Solving for Y, Initial residual = 0.0631483, Final residual = 8.74091e-07, No Iterations 65
DILUPBiCGStab:  Solving for Y, Initial residual = 0.0610356, Final residual = 9.80903e-07, No Iterations 65
DILUPBiCGStab:  Solving for Y, Initial residual = 0.0631488, Final residual = 8.36317e-07, No Iterations 65
DILUPBiCGStab:  Solving for Ux, Initial residual = 8.18772e-05, Final residual = 9.16746e-08, No Iterations 1
DILUPBiCGStab:  Solving for Uy, Initial residual = 0.000137705, Final residual = 1.84806e-07, No Iterations 1
DILUPBiCGStab:  Solving for T, Initial residual = 7.16643e-06, Final residual = 9.54205e-07, No Iterations 1
DICPCG:  Solving for p_rgh, Initial residual = 0.000144303, Final residual = 1.35569e-06, No Iterations 49
time step continuity errors : sum local = 2.65434e-08, global = -6.28676e-09, cumulative = -5.12498e-06
ExecutionTime = 351.54 s  ClockTime = 352 s

Time = 599

DILUPBiCGStab:  Solving for Y, Initial residual = 0.0610381, Final residual = 1.43908e-07, No Iterations 67
DILUPBiCGStab:  Solving for Y, Initial residual = 0.0631507, Final residual = 7.75084e-07, No Iterations 63
DILUPBiCGStab:  Solving for Y, Initial residual = 0.0610383, Final residual = 6.72299e-07, No Iterations 66
DILUPBiCGStab:  Solving for Y, Initial residual = 0.0631513, Final residual = 1.67205e-07, No Iterations 66
DILUPBiCGStab:  Solving for Y, Initial residual = 0.0610382, Final residual = 5.47347e-07, No Iterations 65
DILUPBiCGStab:  Solving for Y, Initial residual = 0.0631509, Final residual = 1.38316e-07, No Iterations 66
DILUPBiCGStab:  Solving for Y, Initial residual = 0.0610382, Final residual = 1.64564e-07, No Iterations 66
DILUPBiCGStab:  Solving for Y, Initial residual = 0.0631505, Final residual = 5.50117e-07, No Iterations 65
DILUPBiCGStab:  Solving for Y, Initial residual = 0.0610382, Final residual = 8.24846e-07, No Iterations 65
DILUPBiCGStab:  Solving for Y, Initial residual = 0.0631515, Final residual = 5.97133e-07, No Iterations 67
DILUPBiCGStab:  Solving for Y, Initial residual = 0.0610382, Final residual = 7.22808e-07, No Iterations 66
DILUPBiCGStab:  Solving for Y, Initial residual = 0.0631514, Final residual = 9.92514e-07, No Iterations 64
DILUPBiCGStab:  Solving for Y, Initial residual = 0.0610382, Final residual = 5.6373e-07, No Iterations 66
DILUPBiCGStab:  Solving for Y, Initial residual = 0.0631512, Final residual = 7.05876e-07, No Iterations 66
DILUPBiCGStab:  Solving for Y, Initial residual = 0.0610383, Final residual = 6.35214e-07, No Iterations 66
DILUPBiCGStab:  Solving for Y, Initial residual = 0.0631513, Final residual = 8.77025e-07, No Iterations 65
DILUPBiCGStab:  Solving for Y, Initial residual = 0.0610383, Final residual = 4.19829e-07, No Iterations 65
DILUPBiCGStab:  Solving for Y, Initial residual = 0.0631508, Final residual = 1.45038e-07, No Iterations 66
DILUPBiCGStab:  Solving for Y, Initial residual = 0.0610382, Final residual = 8.38409e-07, No Iterations 65
DILUPBiCGStab:  Solving for Y, Initial residual = 0.0631515, Final residual = 2.39159e-07, No Iterations 65
DILUPBiCGStab:  Solving for Y, Initial residual = 0.0610381, Final residual = 3.60644e-07, No Iterations 66
DILUPBiCGStab:  Solving for Y, Initial residual = 0.063151, Final residual = 9.15061e-07, No Iterations 64
DILUPBiCGStab:  Solving for Y, Initial residual = 0.0610382, Final residual = 9.45379e-07, No Iterations 65
DILUPBiCGStab:  Solving for Y, Initial residual = 0.0631516, Final residual = 7.03786e-07, No Iterations 63
DILUPBiCGStab:  Solving for Y, Initial residual = 0.0610382, Final residual = 7.39308e-07, No Iterations 65
DILUPBiCGStab:  Solving for Y, Initial residual = 0.0631514, Final residual = 8.00357e-07, No Iterations 66
DILUPBiCGStab:  Solving for Y, Initial residual = 0.0610383, Final residual = 4.02097e-07, No Iterations 66
DILUPBiCGStab:  Solving for Y, Initial residual = 0.063151, Final residual = 8.84723e-07, No Iterations 65
DILUPBiCGStab:  Solving for Y, Initial residual = 0.0610382, Final residual = 4.19287e-07, No Iterations 66
DILUPBiCGStab:  Solving for Y, Initial residual = 0.0631511, Final residual = 1.8936e-07, No Iterations 67
DILUPBiCGStab:  Solving for Y, Initial residual = 0.0610382, Final residual = 8.38922e-07, No Iterations 65
DILUPBiCGStab:  Solving for Y, Initial residual = 0.0631515, Final residual = 6.50789e-07, No Iterations 66
DILUPBiCGStab:  Solving for Y, Initial residual = 0.0610383, Final residual = 2.92764e-07, No Iterations 66
DILUPBiCGStab:  Solving for Y, Initial residual = 0.0631509, Final residual = 9.94442e-07, No Iterations 65
DILUPBiCGStab:  Solving for Y, Initial residual = 0.0610383, Final residual = 8.27386e-07, No Iterations 65
DILUPBiCGStab:  Solving for Y, Initial residual = 0.0631501, Final residual = 9.27044e-07, No Iterations 65
DILUPBiCGStab:  Solving for Y, Initial residual = 0.0610382, Final residual = 2.48408e-07, No Iterations 65
DILUPBiCGStab:  Solving for Y, Initial residual = 0.0631506, Final residual = 9.62056e-07, No Iterations 65
DILUPBiCGStab:  Solving for Y, Initial residual = 0.0610382, Final residual = 9.6402e-07, No Iterations 64
DILUPBiCGStab:  Solving for Y, Initial residual = 0.0631515, Final residual = 8.75096e-07, No Iterations 65
DILUPBiCGStab:  Solving for Ux, Initial residual = 8.1568e-05, Final residual = 9.15136e-08, No Iterations 1
DILUPBiCGStab:  Solving for Uy, Initial residual = 0.000137243, Final residual = 1.83796e-07, No Iterations 1
DILUPBiCGStab:  Solving for T, Initial residual = 7.08805e-06, Final residual = 9.47864e-07, No Iterations 1
DICPCG:  Solving for p_rgh, Initial residual = 0.000142906, Final residual = 1.35562e-06, No Iterations 49
time step continuity errors : sum local = 2.65423e-08, global = -6.27942e-09, cumulative = -5.13125e-06
ExecutionTime = 352.13 s  ClockTime = 352 s

Time = 600

DILUPBiCGStab:  Solving for Y, Initial residual = 0.0610407, Final residual = 1.8188e-07, No Iterations 66
DILUPBiCGStab:  Solving for Y, Initial residual = 0.0631536, Final residual = 9.78026e-07, No Iterations 65
DILUPBiCGStab:  Solving for Y, Initial residual = 0.0610409, Final residual = 8.2031e-07, No Iterations 66
DILUPBiCGStab:  Solving for Y, Initial residual = 0.0631526, Final residual = 9.53709e-07, No Iterations 65
DILUPBiCGStab:  Solving for Y, Initial residual = 0.0610409, Final residual = 8.47935e-07, No Iterations 65
DILUPBiCGStab:  Solving for Y, Initial residual = 0.0631544, Final residual = 8.01748e-07, No Iterations 66
DILUPBiCGStab:  Solving for Y, Initial residual = 0.0610409, Final residual = 2.332e-07, No Iterations 66
DILUPBiCGStab:  Solving for Y, Initial residual = 0.0631537, Final residual = 4.07332e-07, No Iterations 66
DILUPBiCGStab:  Solving for Y, Initial residual = 0.0610409, Final residual = 1.66767e-07, No Iterations 67
DILUPBiCGStab:  Solving for Y, Initial residual = 0.0631537, Final residual = 1.52249e-07, No Iterations 67
DILUPBiCGStab:  Solving for Y, Initial residual = 0.0610409, Final residual = 7.73772e-07, No Iterations 65
DILUPBiCGStab:  Solving for Y, Initial residual = 0.0631543, Final residual = 6.91629e-07, No Iterations 64
DILUPBiCGStab:  Solving for Y, Initial residual = 0.0610408, Final residual = 9.84435e-07, No Iterations 65
DILUPBiCGStab:  Solving for Y, Initial residual = 0.0631545, Final residual = 1.28906e-07, No Iterations 66
DILUPBiCGStab:  Solving for Y, Initial residual = 0.0610408, Final residual = 7.69786e-07, No Iterations 65
DILUPBiCGStab:  Solving for Y, Initial residual = 0.0631543, Final residual = 9.42475e-07, No Iterations 65
DILUPBiCGStab:  Solving for Y, Initial residual = 0.0610409, Final residual = 8.75969e-07, No Iterations 65
DILUPBiCGStab:  Solving for Y, Initial residual = 0.0631544, Final residual = 6.25613e-07, No Iterations 65
DILUPBiCGStab:  Solving for Y, Initial residual = 0.0610408, Final residual = 1.43965e-07, No Iterations 66
DILUPBiCGStab:  Solving for Y, Initial residual = 0.0631535, Final residual = 1.58907e-07, No Iterations 66
DILUPBiCGStab:  Solving for Y, Initial residual = 0.0610408, Final residual = 8.50971e-07, No Iterations 65
DILUPBiCGStab:  Solving for Y, Initial residual = 0.0631544, Final residual = 1.61836e-07, No Iterations 67
DILUPBiCGStab:  Solving for Y, Initial residual = 0.0610409, Final residual = 1.41441e-07, No Iterations 67
DILUPBiCGStab:  Solving for Y, Initial residual = 0.0631536, Final residual = 7.19737e-07, No Iterations 64
DILUPBiCGStab:  Solving for Y, Initial residual = 0.0610408, Final residual = 9.01021e-07, No Iterations 65
DILUPBiCGStab:  Solving for Y, Initial residual = 0.0631545, Final residual = 9.83922e-07, No Iterations 65
DILUPBiCGStab:  Solving for Y, Initial residual = 0.061041, Final residual = 3.0706e-07, No Iterations 66
DILUPBiCGStab:  Solving for Y, Initial residual = 0.0631538, Final residual = 9.28624e-07, No Iterations 65
DILUPBiCGStab:  Solving for Y, Initial residual = 0.0610409, Final residual = 9.87675e-07, No Iterations 65
DILUPBiCGStab:  Solving for Y, Initial residual = 0.0631545, Final residual = 1.30634e-07, No Iterations 66
DILUPBiCGStab:  Solving for Y, Initial residual = 0.0610409, Final residual = 4.72549e-07, No Iterations 66
DILUPBiCGStab:  Solving for Y, Initial residual = 0.063153, Final residual = 4.84739e-07, No Iterations 66
DILUPBiCGStab:  Solving for Y, Initial residual = 0.0610409, Final residual = 7.82697e-07, No Iterations 64
DILUPBiCGStab:  Solving for Y, Initial residual = 0.0631542, Final residual = 9.68284e-07, No Iterations 65
DILUPBiCGStab:  Solving for Y, Initial residual = 0.061041, Final residual = 1.14954e-07, No Iterations 66
DILUPBiCGStab:  Solving for Y, Initial residual = 0.0631535, Final residual = 1.96945e-07, No Iterations 66
DILUPBiCGStab:  Solving for Y, Initial residual = 0.0610408, Final residual = 9.90078e-07, No Iterations 65
DILUPBiCGStab:  Solving for Y, Initial residual = 0.0631546, Final residual = 6.69764e-07, No Iterations 66
DILUPBiCGStab:  Solving for Y, Initial residual = 0.0610409, Final residual = 2.52856e-07, No Iterations 66
DILUPBiCGStab:  Solving for Y, Initial residual = 0.0631537, Final residual = 7.74755e-07, No Iterations 66
DILUPBiCGStab:  Solving for Ux, Initial residual = 8.12548e-05, Final residual = 9.13511e-08, No Iterations 1
DILUPBiCGStab:  Solving for Uy, Initial residual = 0.000136765, Final residual = 1.82765e-07, No Iterations 1
DILUPBiCGStab:  Solving for T, Initial residual = 7.01029e-06, Final residual = 9.41984e-07, No Iterations 1
DICPCG:  Solving for p_rgh, Initial residual = 0.000141515, Final residual = 1.35601e-06, No Iterations 49
time step continuity errors : sum local = 2.65501e-08, global = -6.28266e-09, cumulative = -5.13754e-06
ExecutionTime = 352.83 s  ClockTime = 353 s

forces forces write:
    sum of forces:
        pressure : (0.000491096 0.0649039 2.92957e-22)
        viscous  : (0.00059626 -2.89747e-05 -9.46712e-25)
        porous   : (0 0 0)
    sum of moments:
        pressure : (-0.0340745 0.000257825 0.0279406)
        viscous  : (1.52117e-05 0.000313037 -5.75055e-05)
        porous   : (0 0 0)

forceCoeffs forceCoeffs write:
    Cm    = 0.000499571
    Cd    = 1.94818e-05
    Cl    = 0.00116234
    Cl(f) = 0.00108074
    Cl(r) = 8.15986e-05

End

