/*---------------------------------------------------------------------------*\
| =========                 |                                                 |
| \\      /  F ield         | OpenFOAM: The Open Source CFD Toolbox           |
|  \\    /   O peration     | Version:  5.x                                   |
|   \\  /    A nd           | Web:      www.OpenFOAM.org                      |
|    \\/     M anipulation  |                                                 |
\*---------------------------------------------------------------------------*/
Build  : 5.x-197d9d3bf20a
Exec   : buoyantBoussinesqSimpleFoam
Date   : Nov 05 2020
Time   : 21:03:25
Host   : "ubuntu"
PID    : 7468
I/O    : uncollated
Case   : /home/sid/OpenFOAM/OpenFOAM-5.0/applications/solvers/testSolvers/massBoussinesqSimpleFoam/tutorial/wingMesh/base
nProcs : 1
sigFpe : Enabling floating point exception trapping (FOAM_SIGFPE).
fileModificationChecking : Monitoring run-time modified files using timeStampMaster (fileModificationSkew 10)
allowSystemOperations : Allowing user-supplied system call operations

// * * * * * * * * * * * * * * * * * * * * * * * * * * * * * * * * * * * * * //
Create time

Create mesh for time = 0


SIMPLE: convergence criteria
    field p_rgh	 tolerance 1e-05
    field U	 tolerance 1e-05
    field T	 tolerance 1e-05
    field "(k|epsilon|omega)"	 tolerance 1e-05

Reading thermophysical properties

Reading field T

Reading field p_rgh

Reading field U

Reading/calculating face flux field phi

Selecting incompressible transport model Newtonian
Creating turbulence model

Selecting turbulence model type RAS
Selecting RAS turbulence model kEpsilon
RAS
{
    RASModel        kEpsilon;
    turbulence      on;
    printCoeffs     on;
    Cmu             0.09;
    C1              1.44;
    C2              1.92;
    C3              0;
    sigmak          1;
    sigmaEps        1.3;
}

Reading field alphat


Reading g

Reading hRef
Calculating field g.h

No MRF models present

Radiation model not active: radiationProperties not found
Selecting radiationModel none
No finite volume options present


Starting time loop

forces forces:
    Not including porosity effects
forces forceCoeffs:
    Not including porosity effects
forceCoeffs forceCoeffs:
    Not including porosity effects
Time = 1

DILUPBiCGStab:  Solving for Ux, Initial residual = 1, Final residual = 1.3711e-08, No Iterations 2
DILUPBiCGStab:  Solving for Uy, Initial residual = 1, Final residual = 1.76756e-08, No Iterations 2
DILUPBiCGStab:  Solving for T, Initial residual = 0.500837, Final residual = 4.0415e-07, No Iterations 4
DICPCG:  Solving for p_rgh, Initial residual = 1, Final residual = 0.00989368, No Iterations 56
time step continuity errors : sum local = 0.00183613, global = -0.000174457, cumulative = -0.000174457
DILUPBiCGStab:  Solving for epsilon, Initial residual = 0.207646, Final residual = 6.34809e-07, No Iterations 3
DILUPBiCGStab:  Solving for k, Initial residual = 1, Final residual = 8.66523e-07, No Iterations 5
ExecutionTime = 0.09 s  ClockTime = 0 s

Time = 2

DILUPBiCGStab:  Solving for Ux, Initial residual = 0.475256, Final residual = 1.76498e-07, No Iterations 2
DILUPBiCGStab:  Solving for Uy, Initial residual = 0.70937, Final residual = 2.4541e-07, No Iterations 2
DILUPBiCGStab:  Solving for T, Initial residual = 0.453883, Final residual = 7.43299e-07, No Iterations 3
DICPCG:  Solving for p_rgh, Initial residual = 0.950757, Final residual = 0.00939341, No Iterations 12
time step continuity errors : sum local = 0.474456, global = 0.000455647, cumulative = 0.00028119
DILUPBiCGStab:  Solving for epsilon, Initial residual = 0.305888, Final residual = 8.70768e-07, No Iterations 4
DILUPBiCGStab:  Solving for k, Initial residual = 0.749381, Final residual = 4.16601e-07, No Iterations 4
ExecutionTime = 0.13 s  ClockTime = 0 s

Time = 3

DILUPBiCGStab:  Solving for Ux, Initial residual = 0.0329512, Final residual = 5.8877e-07, No Iterations 2
DILUPBiCGStab:  Solving for Uy, Initial residual = 0.100637, Final residual = 7.0785e-08, No Iterations 2
DILUPBiCGStab:  Solving for T, Initial residual = 0.415883, Final residual = 7.58689e-07, No Iterations 3
DICPCG:  Solving for p_rgh, Initial residual = 0.894978, Final residual = 0.00854978, No Iterations 17
time step continuity errors : sum local = 0.144884, global = 0.00340621, cumulative = 0.0036874
DILUPBiCGStab:  Solving for epsilon, Initial residual = 0.241541, Final residual = 8.62733e-07, No Iterations 2
DILUPBiCGStab:  Solving for k, Initial residual = 0.321369, Final residual = 7.09809e-07, No Iterations 3
ExecutionTime = 0.17 s  ClockTime = 0 s

Time = 4

DILUPBiCGStab:  Solving for Ux, Initial residual = 0.13682, Final residual = 4.79552e-08, No Iterations 2
DILUPBiCGStab:  Solving for Uy, Initial residual = 0.348553, Final residual = 1.22221e-07, No Iterations 2
DILUPBiCGStab:  Solving for T, Initial residual = 0.399578, Final residual = 6.77367e-07, No Iterations 3
DICPCG:  Solving for p_rgh, Initial residual = 0.551318, Final residual = 0.00531558, No Iterations 13
time step continuity errors : sum local = 0.110233, global = 0.00288767, cumulative = 0.00657507
DILUPBiCGStab:  Solving for epsilon, Initial residual = 0.187064, Final residual = 7.17118e-08, No Iterations 2
DILUPBiCGStab:  Solving for k, Initial residual = 0.187072, Final residual = 6.1172e-07, No Iterations 3
ExecutionTime = 0.18 s  ClockTime = 0 s

Time = 5

DILUPBiCGStab:  Solving for Ux, Initial residual = 0.200263, Final residual = 6.79974e-08, No Iterations 2
DILUPBiCGStab:  Solving for Uy, Initial residual = 0.299099, Final residual = 1.32424e-07, No Iterations 2
DILUPBiCGStab:  Solving for T, Initial residual = 0.415256, Final residual = 1.10938e-07, No Iterations 4
DICPCG:  Solving for p_rgh, Initial residual = 0.726009, Final residual = 0.00648081, No Iterations 12
time step continuity errors : sum local = 0.108125, global = 0.012574, cumulative = 0.0191491
DILUPBiCGStab:  Solving for epsilon, Initial residual = 0.0448568, Final residual = 1.12647e-08, No Iterations 2
DILUPBiCGStab:  Solving for k, Initial residual = 0.0710887, Final residual = 4.89292e-07, No Iterations 3
ExecutionTime = 0.21 s  ClockTime = 0 s

Time = 6

DILUPBiCGStab:  Solving for Ux, Initial residual = 0.114875, Final residual = 3.72379e-08, No Iterations 2
DILUPBiCGStab:  Solving for Uy, Initial residual = 0.210907, Final residual = 9.57447e-08, No Iterations 2
DILUPBiCGStab:  Solving for T, Initial residual = 0.388068, Final residual = 9.17908e-07, No Iterations 3
DICPCG:  Solving for p_rgh, Initial residual = 0.705282, Final residual = 0.00576627, No Iterations 13
time step continuity errors : sum local = 0.0545687, global = 0.0126992, cumulative = 0.0318483
DILUPBiCGStab:  Solving for epsilon, Initial residual = 0.0515055, Final residual = 1.32468e-07, No Iterations 1
DILUPBiCGStab:  Solving for k, Initial residual = 0.0480824, Final residual = 9.11112e-07, No Iterations 3
ExecutionTime = 0.22 s  ClockTime = 0 s

Time = 7

DILUPBiCGStab:  Solving for Ux, Initial residual = 0.131738, Final residual = 7.82378e-08, No Iterations 2
DILUPBiCGStab:  Solving for Uy, Initial residual = 0.176036, Final residual = 1.03728e-07, No Iterations 2
DILUPBiCGStab:  Solving for T, Initial residual = 0.382171, Final residual = 5.3134e-07, No Iterations 3
DICPCG:  Solving for p_rgh, Initial residual = 0.533903, Final residual = 0.00481167, No Iterations 13
time step continuity errors : sum local = 0.0325344, global = 0.00980298, cumulative = 0.0416513
DILUPBiCGStab:  Solving for epsilon, Initial residual = 0.0424412, Final residual = 1.13701e-08, No Iterations 2
DILUPBiCGStab:  Solving for k, Initial residual = 0.0438367, Final residual = 2.31155e-07, No Iterations 3
ExecutionTime = 0.24 s  ClockTime = 0 s

Time = 8

DILUPBiCGStab:  Solving for Ux, Initial residual = 0.0661473, Final residual = 5.85058e-07, No Iterations 2
DILUPBiCGStab:  Solving for Uy, Initial residual = 0.127598, Final residual = 6.75343e-08, No Iterations 2
DILUPBiCGStab:  Solving for T, Initial residual = 0.390109, Final residual = 1.27519e-07, No Iterations 4
DICPCG:  Solving for p_rgh, Initial residual = 0.643066, Final residual = 0.00629616, No Iterations 13
time step continuity errors : sum local = 0.0253932, global = 0.00468752, cumulative = 0.0463388
DILUPBiCGStab:  Solving for epsilon, Initial residual = 0.0640275, Final residual = 3.55121e-07, No Iterations 1
DILUPBiCGStab:  Solving for k, Initial residual = 0.0457001, Final residual = 3.52715e-07, No Iterations 3
ExecutionTime = 0.26 s  ClockTime = 0 s

Time = 9

DILUPBiCGStab:  Solving for Ux, Initial residual = 0.0482019, Final residual = 5.82767e-07, No Iterations 2
DILUPBiCGStab:  Solving for Uy, Initial residual = 0.0933157, Final residual = 5.70758e-08, No Iterations 2
DILUPBiCGStab:  Solving for T, Initial residual = 0.377034, Final residual = 4.43322e-07, No Iterations 3
DICPCG:  Solving for p_rgh, Initial residual = 0.529993, Final residual = 0.00495352, No Iterations 14
time step continuity errors : sum local = 0.01435, global = 0.0014349, cumulative = 0.0477737
DILUPBiCGStab:  Solving for epsilon, Initial residual = 0.0729416, Final residual = 6.21113e-07, No Iterations 1
DILUPBiCGStab:  Solving for k, Initial residual = 0.0408109, Final residual = 5.45553e-07, No Iterations 3
ExecutionTime = 0.28 s  ClockTime = 0 s

Time = 10

DILUPBiCGStab:  Solving for Ux, Initial residual = 0.0410794, Final residual = 6.29619e-08, No Iterations 2
DILUPBiCGStab:  Solving for Uy, Initial residual = 0.0814926, Final residual = 4.8456e-08, No Iterations 2
DILUPBiCGStab:  Solving for T, Initial residual = 0.370524, Final residual = 7.57336e-08, No Iterations 4
DICPCG:  Solving for p_rgh, Initial residual = 0.548516, Final residual = 0.00473535, No Iterations 14
time step continuity errors : sum local = 0.00961397, global = -0.0010294, cumulative = 0.0467443
DILUPBiCGStab:  Solving for epsilon, Initial residual = 0.0688309, Final residual = 8.44188e-08, No Iterations 2
DILUPBiCGStab:  Solving for k, Initial residual = 0.0427132, Final residual = 3.90018e-07, No Iterations 4
ExecutionTime = 0.3 s  ClockTime = 0 s

Time = 11

DILUPBiCGStab:  Solving for Ux, Initial residual = 0.0291395, Final residual = 3.30715e-07, No Iterations 2
DILUPBiCGStab:  Solving for Uy, Initial residual = 0.0521096, Final residual = 4.69291e-08, No Iterations 2
DILUPBiCGStab:  Solving for T, Initial residual = 0.382207, Final residual = 2.31514e-07, No Iterations 4
DICPCG:  Solving for p_rgh, Initial residual = 0.387446, Final residual = 0.00334341, No Iterations 16
time step continuity errors : sum local = 0.00519463, global = -0.00244461, cumulative = 0.0442997
DILUPBiCGStab:  Solving for epsilon, Initial residual = 0.0610026, Final residual = 2.25727e-07, No Iterations 2
DILUPBiCGStab:  Solving for k, Initial residual = 0.0475162, Final residual = 5.27776e-07, No Iterations 4
ExecutionTime = 0.31 s  ClockTime = 0 s

Time = 12

DILUPBiCGStab:  Solving for Ux, Initial residual = 0.0206212, Final residual = 3.28259e-07, No Iterations 2
DILUPBiCGStab:  Solving for Uy, Initial residual = 0.0439657, Final residual = 9.01407e-07, No Iterations 2
DILUPBiCGStab:  Solving for T, Initial residual = 0.375599, Final residual = 6.34035e-07, No Iterations 3
DICPCG:  Solving for p_rgh, Initial residual = 0.367722, Final residual = 0.00353984, No Iterations 37
time step continuity errors : sum local = 0.00410989, global = 5.7526e-05, cumulative = 0.0443572
DILUPBiCGStab:  Solving for epsilon, Initial residual = 0.0494314, Final residual = 4.54818e-07, No Iterations 2
DILUPBiCGStab:  Solving for k, Initial residual = 0.0568812, Final residual = 2.0465e-07, No Iterations 4
ExecutionTime = 0.33 s  ClockTime = 0 s

Time = 13

DILUPBiCGStab:  Solving for Ux, Initial residual = 0.016794, Final residual = 2.64966e-07, No Iterations 2
DILUPBiCGStab:  Solving for Uy, Initial residual = 0.0318967, Final residual = 6.32903e-07, No Iterations 2
DILUPBiCGStab:  Solving for T, Initial residual = 0.368433, Final residual = 6.15226e-07, No Iterations 4
DICPCG:  Solving for p_rgh, Initial residual = 0.363137, Final residual = 0.00361489, No Iterations 18
time step continuity errors : sum local = 0.00249577, global = 0.000875985, cumulative = 0.0452332
DILUPBiCGStab:  Solving for epsilon, Initial residual = 0.0373384, Final residual = 9.01504e-07, No Iterations 2
DILUPBiCGStab:  Solving for k, Initial residual = 0.0597716, Final residual = 2.4062e-07, No Iterations 4
ExecutionTime = 0.35 s  ClockTime = 0 s

Time = 14

DILUPBiCGStab:  Solving for Ux, Initial residual = 0.0130608, Final residual = 1.96828e-07, No Iterations 2
DILUPBiCGStab:  Solving for Uy, Initial residual = 0.0258134, Final residual = 5.34165e-07, No Iterations 2
DILUPBiCGStab:  Solving for T, Initial residual = 0.383997, Final residual = 7.72551e-07, No Iterations 3
DICPCG:  Solving for p_rgh, Initial residual = 0.335173, Final residual = 0.00297825, No Iterations 37
time step continuity errors : sum local = 0.00159804, global = 1.49668e-05, cumulative = 0.0452482
DILUPBiCGStab:  Solving for epsilon, Initial residual = 0.025667, Final residual = 2.05753e-07, No Iterations 2
DILUPBiCGStab:  Solving for k, Initial residual = 0.0497775, Final residual = 8.06432e-07, No Iterations 4
ExecutionTime = 0.37 s  ClockTime = 0 s

Time = 15

DILUPBiCGStab:  Solving for Ux, Initial residual = 0.00841896, Final residual = 1.66171e-07, No Iterations 2
DILUPBiCGStab:  Solving for Uy, Initial residual = 0.019326, Final residual = 4.10078e-07, No Iterations 2
DILUPBiCGStab:  Solving for T, Initial residual = 0.36363, Final residual = 1.67434e-07, No Iterations 4
DICPCG:  Solving for p_rgh, Initial residual = 0.196144, Final residual = 0.0017046, No Iterations 17
time step continuity errors : sum local = 0.00103429, global = 0.000113757, cumulative = 0.045362
DILUPBiCGStab:  Solving for epsilon, Initial residual = 0.0163981, Final residual = 3.2906e-07, No Iterations 2
DILUPBiCGStab:  Solving for k, Initial residual = 0.0424525, Final residual = 2.05329e-07, No Iterations 4
ExecutionTime = 0.39 s  ClockTime = 0 s

Time = 16

DILUPBiCGStab:  Solving for Ux, Initial residual = 0.0074991, Final residual = 1.60654e-07, No Iterations 2
DILUPBiCGStab:  Solving for Uy, Initial residual = 0.0151752, Final residual = 3.77272e-07, No Iterations 2
DILUPBiCGStab:  Solving for T, Initial residual = 0.366894, Final residual = 2.26469e-07, No Iterations 4
DICPCG:  Solving for p_rgh, Initial residual = 0.161002, Final residual = 0.00151776, No Iterations 38
time step continuity errors : sum local = 0.00081405, global = -1.79656e-05, cumulative = 0.045344
DILUPBiCGStab:  Solving for epsilon, Initial residual = 0.0105041, Final residual = 4.27166e-07, No Iterations 2
DILUPBiCGStab:  Solving for k, Initial residual = 0.0374144, Final residual = 9.60256e-07, No Iterations 4
ExecutionTime = 0.41 s  ClockTime = 0 s

Time = 17

DILUPBiCGStab:  Solving for Ux, Initial residual = 0.00501096, Final residual = 1.36218e-07, No Iterations 2
DILUPBiCGStab:  Solving for Uy, Initial residual = 0.0115037, Final residual = 2.54484e-07, No Iterations 2
DILUPBiCGStab:  Solving for T, Initial residual = 0.371677, Final residual = 4.06886e-07, No Iterations 4
DICPCG:  Solving for p_rgh, Initial residual = 0.143965, Final residual = 0.00127697, No Iterations 37
time step continuity errors : sum local = 0.000547206, global = -1.11187e-05, cumulative = 0.0453329
DILUPBiCGStab:  Solving for epsilon, Initial residual = 0.00561608, Final residual = 4.86452e-07, No Iterations 2
DILUPBiCGStab:  Solving for k, Initial residual = 0.0337685, Final residual = 7.66871e-07, No Iterations 4
ExecutionTime = 0.43 s  ClockTime = 0 s

Time = 18

DILUPBiCGStab:  Solving for Ux, Initial residual = 0.00441721, Final residual = 1.5249e-07, No Iterations 2
DILUPBiCGStab:  Solving for Uy, Initial residual = 0.00924793, Final residual = 1.78397e-07, No Iterations 2
DILUPBiCGStab:  Solving for T, Initial residual = 0.360211, Final residual = 4.58671e-07, No Iterations 4
DICPCG:  Solving for p_rgh, Initial residual = 0.124353, Final residual = 0.00114507, No Iterations 10
time step continuity errors : sum local = 0.000415708, global = 0.000144218, cumulative = 0.0454771
DILUPBiCGStab:  Solving for epsilon, Initial residual = 0.00308247, Final residual = 5.34372e-07, No Iterations 2
DILUPBiCGStab:  Solving for k, Initial residual = 0.0308475, Final residual = 5.52995e-07, No Iterations 4
ExecutionTime = 0.45 s  ClockTime = 0 s

Time = 19

DILUPBiCGStab:  Solving for Ux, Initial residual = 0.00396889, Final residual = 4.91797e-07, No Iterations 2
DILUPBiCGStab:  Solving for Uy, Initial residual = 0.00788863, Final residual = 2.82764e-07, No Iterations 2
DILUPBiCGStab:  Solving for T, Initial residual = 0.35331, Final residual = 4.28239e-07, No Iterations 3
DICPCG:  Solving for p_rgh, Initial residual = 0.103328, Final residual = 0.000897954, No Iterations 39
time step continuity errors : sum local = 0.000296435, global = -1.40696e-06, cumulative = 0.0454757
DILUPBiCGStab:  Solving for epsilon, Initial residual = 0.00193613, Final residual = 5.6697e-07, No Iterations 2
DILUPBiCGStab:  Solving for k, Initial residual = 0.0284411, Final residual = 5.01819e-07, No Iterations 4
ExecutionTime = 0.47 s  ClockTime = 1 s

Time = 20

DILUPBiCGStab:  Solving for Ux, Initial residual = 0.00366562, Final residual = 5.67988e-08, No Iterations 2
DILUPBiCGStab:  Solving for Uy, Initial residual = 0.00709888, Final residual = 2.30467e-07, No Iterations 2
DILUPBiCGStab:  Solving for T, Initial residual = 0.363109, Final residual = 5.98622e-07, No Iterations 3
DICPCG:  Solving for p_rgh, Initial residual = 0.0827204, Final residual = 0.000793774, No Iterations 14
time step continuity errors : sum local = 0.000256911, global = 1.5571e-05, cumulative = 0.0454912
DILUPBiCGStab:  Solving for epsilon, Initial residual = 0.00142542, Final residual = 5.9859e-07, No Iterations 2
DILUPBiCGStab:  Solving for k, Initial residual = 0.026418, Final residual = 4.62749e-07, No Iterations 4
ExecutionTime = 0.48 s  ClockTime = 1 s

Time = 21

DILUPBiCGStab:  Solving for Ux, Initial residual = 0.00343286, Final residual = 1.72887e-07, No Iterations 2
DILUPBiCGStab:  Solving for Uy, Initial residual = 0.00643285, Final residual = 2.40776e-07, No Iterations 2
DILUPBiCGStab:  Solving for T, Initial residual = 0.368985, Final residual = 4.59352e-07, No Iterations 3
DICPCG:  Solving for p_rgh, Initial residual = 0.0696718, Final residual = 0.000670252, No Iterations 19
time step continuity errors : sum local = 0.000201882, global = -5.77175e-05, cumulative = 0.0454335
DILUPBiCGStab:  Solving for epsilon, Initial residual = 0.00112649, Final residual = 6.54632e-07, No Iterations 2
DILUPBiCGStab:  Solving for k, Initial residual = 0.0245609, Final residual = 5.01134e-07, No Iterations 4
ExecutionTime = 0.5 s  ClockTime = 1 s

Time = 22

DILUPBiCGStab:  Solving for Ux, Initial residual = 0.00324394, Final residual = 1.1717e-07, No Iterations 2
DILUPBiCGStab:  Solving for Uy, Initial residual = 0.00595334, Final residual = 7.04579e-07, No Iterations 2
DILUPBiCGStab:  Solving for T, Initial residual = 0.352685, Final residual = 2.77937e-07, No Iterations 4
DICPCG:  Solving for p_rgh, Initial residual = 0.0579003, Final residual = 0.000558153, No Iterations 32
time step continuity errors : sum local = 0.000157388, global = -3.04857e-06, cumulative = 0.0454305
DILUPBiCGStab:  Solving for epsilon, Initial residual = 0.000924102, Final residual = 5.83459e-07, No Iterations 2
DILUPBiCGStab:  Solving for k, Initial residual = 0.0229269, Final residual = 4.35687e-07, No Iterations 4
ExecutionTime = 0.52 s  ClockTime = 1 s

Time = 23

DILUPBiCGStab:  Solving for Ux, Initial residual = 0.00304455, Final residual = 1.49053e-07, No Iterations 2
DILUPBiCGStab:  Solving for Uy, Initial residual = 0.00549993, Final residual = 3.34678e-07, No Iterations 2
DILUPBiCGStab:  Solving for T, Initial residual = 0.345487, Final residual = 3.25603e-07, No Iterations 4
DICPCG:  Solving for p_rgh, Initial residual = 0.0505081, Final residual = 0.00048895, No Iterations 12
time step continuity errors : sum local = 0.000126357, global = 1.5846e-05, cumulative = 0.0454463
DILUPBiCGStab:  Solving for epsilon, Initial residual = 0.000844433, Final residual = 5.92004e-07, No Iterations 2
DILUPBiCGStab:  Solving for k, Initial residual = 0.0215308, Final residual = 9.8174e-07, No Iterations 4
ExecutionTime = 0.54 s  ClockTime = 1 s

Time = 24

DILUPBiCGStab:  Solving for Ux, Initial residual = 0.00293656, Final residual = 2.77338e-07, No Iterations 2
DILUPBiCGStab:  Solving for Uy, Initial residual = 0.00515564, Final residual = 2.00924e-07, No Iterations 2
DILUPBiCGStab:  Solving for T, Initial residual = 0.352367, Final residual = 9.74257e-07, No Iterations 3
DICPCG:  Solving for p_rgh, Initial residual = 0.0428936, Final residual = 0.000415351, No Iterations 36
time step continuity errors : sum local = 0.000102536, global = 2.03383e-06, cumulative = 0.0454484
DILUPBiCGStab:  Solving for epsilon, Initial residual = 0.000777228, Final residual = 5.90047e-07, No Iterations 2
DILUPBiCGStab:  Solving for k, Initial residual = 0.0202556, Final residual = 5.4188e-07, No Iterations 4
ExecutionTime = 0.56 s  ClockTime = 1 s

Time = 25

DILUPBiCGStab:  Solving for Ux, Initial residual = 0.00285598, Final residual = 7.50346e-07, No Iterations 2
DILUPBiCGStab:  Solving for Uy, Initial residual = 0.00491099, Final residual = 2.0469e-07, No Iterations 2
DILUPBiCGStab:  Solving for T, Initial residual = 0.353213, Final residual = 6.45786e-07, No Iterations 4
DICPCG:  Solving for p_rgh, Initial residual = 0.036183, Final residual = 0.000353699, No Iterations 15
time step continuity errors : sum local = 8.52928e-05, global = 1.59294e-05, cumulative = 0.0454643
DILUPBiCGStab:  Solving for epsilon, Initial residual = 0.000718777, Final residual = 5.40951e-07, No Iterations 2
DILUPBiCGStab:  Solving for k, Initial residual = 0.0190403, Final residual = 4.43482e-07, No Iterations 4
ExecutionTime = 0.58 s  ClockTime = 1 s

Time = 26

DILUPBiCGStab:  Solving for Ux, Initial residual = 0.00277335, Final residual = 2.27173e-07, No Iterations 2
DILUPBiCGStab:  Solving for Uy, Initial residual = 0.00474291, Final residual = 2.11115e-07, No Iterations 2
DILUPBiCGStab:  Solving for T, Initial residual = 0.356181, Final residual = 4.64406e-07, No Iterations 3
DICPCG:  Solving for p_rgh, Initial residual = 0.0310876, Final residual = 0.000303257, No Iterations 17
time step continuity errors : sum local = 7.06218e-05, global = -1.25408e-06, cumulative = 0.045463
DILUPBiCGStab:  Solving for epsilon, Initial residual = 0.000676734, Final residual = 4.95297e-07, No Iterations 2
DILUPBiCGStab:  Solving for k, Initial residual = 0.0178524, Final residual = 3.91685e-07, No Iterations 4
ExecutionTime = 0.6 s  ClockTime = 1 s

Time = 27

DILUPBiCGStab:  Solving for Ux, Initial residual = 0.00270576, Final residual = 9.09866e-08, No Iterations 2
DILUPBiCGStab:  Solving for Uy, Initial residual = 0.00454566, Final residual = 2.13125e-07, No Iterations 2
DILUPBiCGStab:  Solving for T, Initial residual = 0.344394, Final residual = 4.07545e-07, No Iterations 3
DICPCG:  Solving for p_rgh, Initial residual = 0.027112, Final residual = 0.000260193, No Iterations 18
time step continuity errors : sum local = 5.88284e-05, global = -1.86272e-05, cumulative = 0.0454444
DILUPBiCGStab:  Solving for epsilon, Initial residual = 0.000636823, Final residual = 4.76696e-07, No Iterations 2
DILUPBiCGStab:  Solving for k, Initial residual = 0.0166631, Final residual = 3.53544e-07, No Iterations 4
ExecutionTime = 0.61 s  ClockTime = 1 s

Time = 28

DILUPBiCGStab:  Solving for Ux, Initial residual = 0.00263579, Final residual = 8.51913e-07, No Iterations 2
DILUPBiCGStab:  Solving for Uy, Initial residual = 0.00433771, Final residual = 1.94971e-07, No Iterations 2
DILUPBiCGStab:  Solving for T, Initial residual = 0.349524, Final residual = 1.37967e-07, No Iterations 4
DICPCG:  Solving for p_rgh, Initial residual = 0.0238294, Final residual = 0.000235256, No Iterations 32
time step continuity errors : sum local = 5.18579e-05, global = -7.7343e-06, cumulative = 0.0454367
DILUPBiCGStab:  Solving for epsilon, Initial residual = 0.000585878, Final residual = 4.53213e-07, No Iterations 2
DILUPBiCGStab:  Solving for k, Initial residual = 0.0155031, Final residual = 3.21046e-07, No Iterations 4
ExecutionTime = 0.63 s  ClockTime = 1 s

Time = 29

DILUPBiCGStab:  Solving for Ux, Initial residual = 0.00255126, Final residual = 5.86901e-07, No Iterations 2
DILUPBiCGStab:  Solving for Uy, Initial residual = 0.00415853, Final residual = 1.47467e-07, No Iterations 2
DILUPBiCGStab:  Solving for T, Initial residual = 0.356986, Final residual = 6.03643e-07, No Iterations 3
DICPCG:  Solving for p_rgh, Initial residual = 0.0212226, Final residual = 0.000181744, No Iterations 14
time step continuity errors : sum local = 3.87716e-05, global = -4.21271e-06, cumulative = 0.0454325
DILUPBiCGStab:  Solving for epsilon, Initial residual = 0.000551069, Final residual = 4.25967e-07, No Iterations 2
DILUPBiCGStab:  Solving for k, Initial residual = 0.0144104, Final residual = 2.89579e-07, No Iterations 4
ExecutionTime = 0.65 s  ClockTime = 1 s

Time = 30

DILUPBiCGStab:  Solving for Ux, Initial residual = 0.00249335, Final residual = 4.28193e-07, No Iterations 2
DILUPBiCGStab:  Solving for Uy, Initial residual = 0.00398739, Final residual = 1.35756e-07, No Iterations 2
DILUPBiCGStab:  Solving for T, Initial residual = 0.350371, Final residual = 6.07355e-07, No Iterations 3
DICPCG:  Solving for p_rgh, Initial residual = 0.018585, Final residual = 0.000183769, No Iterations 17
time step continuity errors : sum local = 3.85333e-05, global = 8.99278e-06, cumulative = 0.0454415
DILUPBiCGStab:  Solving for epsilon, Initial residual = 0.00053524, Final residual = 3.98948e-07, No Iterations 2
DILUPBiCGStab:  Solving for k, Initial residual = 0.0134278, Final residual = 2.62293e-07, No Iterations 4
ExecutionTime = 0.67 s  ClockTime = 1 s

Time = 31

DILUPBiCGStab:  Solving for Ux, Initial residual = 0.00244083, Final residual = 3.79788e-07, No Iterations 2
DILUPBiCGStab:  Solving for Uy, Initial residual = 0.00384612, Final residual = 1.2469e-07, No Iterations 2
DILUPBiCGStab:  Solving for T, Initial residual = 0.343552, Final residual = 7.04288e-07, No Iterations 3
DICPCG:  Solving for p_rgh, Initial residual = 0.0164804, Final residual = 0.000159126, No Iterations 20
time step continuity errors : sum local = 3.28728e-05, global = 1.09687e-05, cumulative = 0.0454524
DILUPBiCGStab:  Solving for epsilon, Initial residual = 0.000505664, Final residual = 3.68305e-07, No Iterations 2
DILUPBiCGStab:  Solving for k, Initial residual = 0.0125533, Final residual = 2.38058e-07, No Iterations 4
ExecutionTime = 0.69 s  ClockTime = 1 s

Time = 32

DILUPBiCGStab:  Solving for Ux, Initial residual = 0.00238817, Final residual = 3.71024e-07, No Iterations 2
DILUPBiCGStab:  Solving for Uy, Initial residual = 0.00370959, Final residual = 8.38813e-08, No Iterations 2
DILUPBiCGStab:  Solving for T, Initial residual = 0.342102, Final residual = 6.35055e-07, No Iterations 3
DICPCG:  Solving for p_rgh, Initial residual = 0.0147033, Final residual = 0.000128942, No Iterations 20
time step continuity errors : sum local = 2.63225e-05, global = 7.24197e-06, cumulative = 0.0454597
DILUPBiCGStab:  Solving for epsilon, Initial residual = 0.000468004, Final residual = 3.4283e-07, No Iterations 2
DILUPBiCGStab:  Solving for k, Initial residual = 0.0117635, Final residual = 2.17479e-07, No Iterations 4
ExecutionTime = 0.72 s  ClockTime = 1 s

Time = 33

DILUPBiCGStab:  Solving for Ux, Initial residual = 0.00234048, Final residual = 3.46247e-07, No Iterations 2
DILUPBiCGStab:  Solving for Uy, Initial residual = 0.00357398, Final residual = 9.92654e-08, No Iterations 2
DILUPBiCGStab:  Solving for T, Initial residual = 0.346627, Final residual = 9.00289e-08, No Iterations 4
DICPCG:  Solving for p_rgh, Initial residual = 0.0130566, Final residual = 0.000123077, No Iterations 17
time step continuity errors : sum local = 2.48982e-05, global = 5.94488e-07, cumulative = 0.0454603
DILUPBiCGStab:  Solving for epsilon, Initial residual = 0.000425901, Final residual = 3.18508e-07, No Iterations 2
DILUPBiCGStab:  Solving for k, Initial residual = 0.0110409, Final residual = 2.00112e-07, No Iterations 4
ExecutionTime = 0.74 s  ClockTime = 1 s

Time = 34

DILUPBiCGStab:  Solving for Ux, Initial residual = 0.00229475, Final residual = 3.18007e-07, No Iterations 2
DILUPBiCGStab:  Solving for Uy, Initial residual = 0.00345112, Final residual = 8.1537e-07, No Iterations 2
DILUPBiCGStab:  Solving for T, Initial residual = 0.358329, Final residual = 9.00314e-07, No Iterations 3
DICPCG:  Solving for p_rgh, Initial residual = 0.0116187, Final residual = 0.000112412, No Iterations 41
time step continuity errors : sum local = 2.25573e-05, global = -3.14812e-06, cumulative = 0.0454571
DILUPBiCGStab:  Solving for epsilon, Initial residual = 0.000391148, Final residual = 2.9457e-07, No Iterations 2
DILUPBiCGStab:  Solving for k, Initial residual = 0.0103788, Final residual = 1.86965e-07, No Iterations 4
ExecutionTime = 0.77 s  ClockTime = 1 s

Time = 35

DILUPBiCGStab:  Solving for Ux, Initial residual = 0.00224759, Final residual = 3.14595e-07, No Iterations 2
DILUPBiCGStab:  Solving for Uy, Initial residual = 0.00334121, Final residual = 3.55122e-07, No Iterations 2
DILUPBiCGStab:  Solving for T, Initial residual = 0.347007, Final residual = 4.54708e-07, No Iterations 3
DICPCG:  Solving for p_rgh, Initial residual = 0.0104004, Final residual = 0.000100767, No Iterations 23
time step continuity errors : sum local = 2.00096e-05, global = -4.9597e-06, cumulative = 0.0454522
DILUPBiCGStab:  Solving for epsilon, Initial residual = 0.000352302, Final residual = 2.73739e-07, No Iterations 2
DILUPBiCGStab:  Solving for k, Initial residual = 0.0097603, Final residual = 1.76575e-07, No Iterations 4
ExecutionTime = 0.81 s  ClockTime = 1 s

Time = 36

DILUPBiCGStab:  Solving for Ux, Initial residual = 0.00220534, Final residual = 2.96142e-07, No Iterations 2
DILUPBiCGStab:  Solving for Uy, Initial residual = 0.00323971, Final residual = 2.93294e-07, No Iterations 2
DILUPBiCGStab:  Solving for T, Initial residual = 0.355938, Final residual = 5.23222e-07, No Iterations 3
DICPCG:  Solving for p_rgh, Initial residual = 0.00924257, Final residual = 8.389e-05, No Iterations 42
time step continuity errors : sum local = 1.6548e-05, global = -1.84602e-06, cumulative = 0.0454503
DILUPBiCGStab:  Solving for epsilon, Initial residual = 0.000322736, Final residual = 2.5408e-07, No Iterations 2
DILUPBiCGStab:  Solving for k, Initial residual = 0.00918619, Final residual = 1.67749e-07, No Iterations 4
ExecutionTime = 0.84 s  ClockTime = 1 s

Time = 37

DILUPBiCGStab:  Solving for Ux, Initial residual = 0.002164, Final residual = 2.83088e-07, No Iterations 2
DILUPBiCGStab:  Solving for Uy, Initial residual = 0.00314511, Final residual = 3.10901e-07, No Iterations 2
DILUPBiCGStab:  Solving for T, Initial residual = 0.356319, Final residual = 8.49516e-09, No Iterations 5
DICPCG:  Solving for p_rgh, Initial residual = 0.00828225, Final residual = 8.06026e-05, No Iterations 21
time step continuity errors : sum local = 1.57739e-05, global = 8.21012e-07, cumulative = 0.0454511
DILUPBiCGStab:  Solving for epsilon, Initial residual = 0.000297751, Final residual = 2.35925e-07, No Iterations 2
DILUPBiCGStab:  Solving for k, Initial residual = 0.00864862, Final residual = 1.59261e-07, No Iterations 4
ExecutionTime = 0.86 s  ClockTime = 1 s

Time = 38

DILUPBiCGStab:  Solving for Ux, Initial residual = 0.00212527, Final residual = 2.58517e-07, No Iterations 2
DILUPBiCGStab:  Solving for Uy, Initial residual = 0.00306048, Final residual = 3.38122e-07, No Iterations 2
DILUPBiCGStab:  Solving for T, Initial residual = 0.341493, Final residual = 5.00267e-07, No Iterations 3
DICPCG:  Solving for p_rgh, Initial residual = 0.00748118, Final residual = 6.87638e-05, No Iterations 23
time step continuity errors : sum local = 1.34078e-05, global = 1.07156e-06, cumulative = 0.0454522
DILUPBiCGStab:  Solving for epsilon, Initial residual = 0.000275104, Final residual = 2.18778e-07, No Iterations 2
DILUPBiCGStab:  Solving for k, Initial residual = 0.00814287, Final residual = 1.50771e-07, No Iterations 4
ExecutionTime = 0.88 s  ClockTime = 1 s

Time = 39

DILUPBiCGStab:  Solving for Ux, Initial residual = 0.00208911, Final residual = 2.41207e-07, No Iterations 2
DILUPBiCGStab:  Solving for Uy, Initial residual = 0.00298402, Final residual = 4.18597e-07, No Iterations 2
DILUPBiCGStab:  Solving for T, Initial residual = 0.355736, Final residual = 1.12881e-07, No Iterations 4
DICPCG:  Solving for p_rgh, Initial residual = 0.00683019, Final residual = 6.56475e-05, No Iterations 23
time step continuity errors : sum local = 1.27635e-05, global = -5.35092e-07, cumulative = 0.0454517
DILUPBiCGStab:  Solving for epsilon, Initial residual = 0.000254478, Final residual = 2.02485e-07, No Iterations 2
DILUPBiCGStab:  Solving for k, Initial residual = 0.00766501, Final residual = 1.41468e-07, No Iterations 4
ExecutionTime = 0.89 s  ClockTime = 1 s

Time = 40

DILUPBiCGStab:  Solving for Ux, Initial residual = 0.00205286, Final residual = 2.23883e-07, No Iterations 2
DILUPBiCGStab:  Solving for Uy, Initial residual = 0.00291291, Final residual = 5.86755e-07, No Iterations 2
DILUPBiCGStab:  Solving for T, Initial residual = 0.348686, Final residual = 3.03307e-07, No Iterations 4
DICPCG:  Solving for p_rgh, Initial residual = 0.00627473, Final residual = 6.24183e-05, No Iterations 35
time step continuity errors : sum local = 1.21076e-05, global = -3.16735e-06, cumulative = 0.0454485
DILUPBiCGStab:  Solving for epsilon, Initial residual = 0.000235982, Final residual = 9.4816e-07, No Iterations 2
DILUPBiCGStab:  Solving for k, Initial residual = 0.00721065, Final residual = 1.30395e-07, No Iterations 4
ExecutionTime = 0.91 s  ClockTime = 1 s

Time = 41

DILUPBiCGStab:  Solving for Ux, Initial residual = 0.00201798, Final residual = 2.09231e-07, No Iterations 2
DILUPBiCGStab:  Solving for Uy, Initial residual = 0.0028485, Final residual = 4.82077e-08, No Iterations 2
DILUPBiCGStab:  Solving for T, Initial residual = 0.348493, Final residual = 1.982e-07, No Iterations 4
DICPCG:  Solving for p_rgh, Initial residual = 0.00581648, Final residual = 5.16096e-05, No Iterations 44
time step continuity errors : sum local = 9.98438e-06, global = -6.73421e-07, cumulative = 0.0454478
DILUPBiCGStab:  Solving for epsilon, Initial residual = 0.000226305, Final residual = 9.08049e-07, No Iterations 2
DILUPBiCGStab:  Solving for k, Initial residual = 0.00678065, Final residual = 1.18311e-07, No Iterations 4
ExecutionTime = 0.94 s  ClockTime = 1 s

Time = 42

DILUPBiCGStab:  Solving for Ux, Initial residual = 0.00198334, Final residual = 1.94032e-07, No Iterations 2
DILUPBiCGStab:  Solving for Uy, Initial residual = 0.00278696, Final residual = 1.42253e-07, No Iterations 2
DILUPBiCGStab:  Solving for T, Initial residual = 0.338754, Final residual = 9.44635e-07, No Iterations 3
DICPCG:  Solving for p_rgh, Initial residual = 0.00555353, Final residual = 5.33814e-05, No Iterations 23
time step continuity errors : sum local = 1.02895e-05, global = 1.0038e-07, cumulative = 0.0454479
DILUPBiCGStab:  Solving for epsilon, Initial residual = 0.000206028, Final residual = 8.30407e-07, No Iterations 2
DILUPBiCGStab:  Solving for k, Initial residual = 0.00636708, Final residual = 1.05703e-07, No Iterations 4
ExecutionTime = 0.99 s  ClockTime = 1 s

Time = 43

DILUPBiCGStab:  Solving for Ux, Initial residual = 0.00195007, Final residual = 9.83731e-07, No Iterations 1
DILUPBiCGStab:  Solving for Uy, Initial residual = 0.00273089, Final residual = 1.37975e-07, No Iterations 2
DILUPBiCGStab:  Solving for T, Initial residual = 0.343941, Final residual = 8.04338e-07, No Iterations 3
DICPCG:  Solving for p_rgh, Initial residual = 0.00517024, Final residual = 4.57952e-05, No Iterations 25
time step continuity errors : sum local = 8.8158e-06, global = -1.09557e-06, cumulative = 0.0454468
DILUPBiCGStab:  Solving for epsilon, Initial residual = 0.000192086, Final residual = 7.83676e-07, No Iterations 2
DILUPBiCGStab:  Solving for k, Initial residual = 0.00597249, Final residual = 9.40797e-08, No Iterations 4
ExecutionTime = 1.04 s  ClockTime = 1 s

Time = 44

DILUPBiCGStab:  Solving for Ux, Initial residual = 0.00191741, Final residual = 9.62578e-07, No Iterations 1
DILUPBiCGStab:  Solving for Uy, Initial residual = 0.00267965, Final residual = 9.162e-07, No Iterations 2
DILUPBiCGStab:  Solving for T, Initial residual = 0.333033, Final residual = 1.96158e-07, No Iterations 4
DICPCG:  Solving for p_rgh, Initial residual = 0.00482786, Final residual = 4.66905e-05, No Iterations 28
time step continuity errors : sum local = 8.97974e-06, global = -2.91589e-06, cumulative = 0.0454439
DILUPBiCGStab:  Solving for epsilon, Initial residual = 0.000180653, Final residual = 7.42982e-07, No Iterations 2
DILUPBiCGStab:  Solving for k, Initial residual = 0.00559587, Final residual = 8.43954e-08, No Iterations 4
ExecutionTime = 1.08 s  ClockTime = 1 s

Time = 45

DILUPBiCGStab:  Solving for Ux, Initial residual = 0.00188589, Final residual = 9.43681e-07, No Iterations 1
DILUPBiCGStab:  Solving for Uy, Initial residual = 0.00263222, Final residual = 5.33469e-07, No Iterations 2
DILUPBiCGStab:  Solving for T, Initial residual = 0.344282, Final residual = 4.94794e-07, No Iterations 3
DICPCG:  Solving for p_rgh, Initial residual = 0.00454951, Final residual = 3.41909e-05, No Iterations 45
time step continuity errors : sum local = 6.5696e-06, global = -3.47502e-07, cumulative = 0.0454436
DILUPBiCGStab:  Solving for epsilon, Initial residual = 0.000170438, Final residual = 7.06024e-07, No Iterations 2
DILUPBiCGStab:  Solving for k, Initial residual = 0.00523542, Final residual = 9.05863e-07, No Iterations 3
ExecutionTime = 1.11 s  ClockTime = 1 s

Time = 46

DILUPBiCGStab:  Solving for Ux, Initial residual = 0.00185549, Final residual = 9.25817e-07, No Iterations 1
DILUPBiCGStab:  Solving for Uy, Initial residual = 0.0025871, Final residual = 3.9943e-07, No Iterations 2
DILUPBiCGStab:  Solving for T, Initial residual = 0.342441, Final residual = 7.73931e-08, No Iterations 4
DICPCG:  Solving for p_rgh, Initial residual = 0.00432641, Final residual = 4.04469e-05, No Iterations 25
time step continuity errors : sum local = 7.75325e-06, global = -3.58964e-07, cumulative = 0.0454432
DILUPBiCGStab:  Solving for epsilon, Initial residual = 0.000168352, Final residual = 7.05935e-07, No Iterations 2
DILUPBiCGStab:  Solving for k, Initial residual = 0.00489459, Final residual = 6.31336e-07, No Iterations 3
ExecutionTime = 1.17 s  ClockTime = 1 s

Time = 47

DILUPBiCGStab:  Solving for Ux, Initial residual = 0.00182651, Final residual = 9.10227e-07, No Iterations 1
DILUPBiCGStab:  Solving for Uy, Initial residual = 0.00254562, Final residual = 3.25631e-07, No Iterations 2
DILUPBiCGStab:  Solving for T, Initial residual = 0.349506, Final residual = 1.14333e-07, No Iterations 4
DICPCG:  Solving for p_rgh, Initial residual = 0.00424914, Final residual = 4.13987e-05, No Iterations 25
time step continuity errors : sum local = 7.9309e-06, global = -6.79318e-07, cumulative = 0.0454425
DILUPBiCGStab:  Solving for epsilon, Initial residual = 0.00015356, Final residual = 6.46043e-07, No Iterations 2
DILUPBiCGStab:  Solving for k, Initial residual = 0.00456683, Final residual = 4.73668e-07, No Iterations 3
ExecutionTime = 1.22 s  ClockTime = 1 s

Time = 48

DILUPBiCGStab:  Solving for Ux, Initial residual = 0.00179774, Final residual = 8.94801e-07, No Iterations 1
DILUPBiCGStab:  Solving for Uy, Initial residual = 0.00250786, Final residual = 2.67839e-07, No Iterations 2
DILUPBiCGStab:  Solving for T, Initial residual = 0.344523, Final residual = 9.2906e-08, No Iterations 4
DICPCG:  Solving for p_rgh, Initial residual = 0.00405229, Final residual = 3.72607e-05, No Iterations 28
time step continuity errors : sum local = 7.13469e-06, global = -2.13724e-06, cumulative = 0.0454404
DILUPBiCGStab:  Solving for epsilon, Initial residual = 0.000144678, Final residual = 6.1772e-07, No Iterations 2
DILUPBiCGStab:  Solving for k, Initial residual = 0.00425848, Final residual = 3.77409e-07, No Iterations 3
ExecutionTime = 1.25 s  ClockTime = 1 s

Time = 49

DILUPBiCGStab:  Solving for Ux, Initial residual = 0.00177004, Final residual = 8.79106e-07, No Iterations 1
DILUPBiCGStab:  Solving for Uy, Initial residual = 0.00247099, Final residual = 2.25788e-07, No Iterations 2
DILUPBiCGStab:  Solving for T, Initial residual = 0.342712, Final residual = 1.80724e-07, No Iterations 4
DICPCG:  Solving for p_rgh, Initial residual = 0.00386439, Final residual = 3.0617e-05, No Iterations 45
time step continuity errors : sum local = 5.85946e-06, global = -2.39709e-07, cumulative = 0.0454402
DILUPBiCGStab:  Solving for epsilon, Initial residual = 0.000144376, Final residual = 5.98685e-07, No Iterations 2
DILUPBiCGStab:  Solving for k, Initial residual = 0.00397241, Final residual = 3.15558e-07, No Iterations 3
ExecutionTime = 1.29 s  ClockTime = 1 s

Time = 50

DILUPBiCGStab:  Solving for Ux, Initial residual = 0.00174358, Final residual = 8.63443e-07, No Iterations 1
DILUPBiCGStab:  Solving for Uy, Initial residual = 0.00243787, Final residual = 1.98684e-07, No Iterations 2
DILUPBiCGStab:  Solving for T, Initial residual = 0.347552, Final residual = 9.75235e-07, No Iterations 3
DICPCG:  Solving for p_rgh, Initial residual = 0.00386008, Final residual = 3.73303e-05, No Iterations 25
time step continuity errors : sum local = 7.13261e-06, global = -4.03413e-07, cumulative = 0.0454397
DILUPBiCGStab:  Solving for epsilon, Initial residual = 0.000131031, Final residual = 5.70378e-07, No Iterations 2
DILUPBiCGStab:  Solving for k, Initial residual = 0.00370133, Final residual = 2.76662e-07, No Iterations 3
ExecutionTime = 1.33 s  ClockTime = 1 s

Time = 51

DILUPBiCGStab:  Solving for Ux, Initial residual = 0.00171688, Final residual = 8.49526e-07, No Iterations 1
DILUPBiCGStab:  Solving for Uy, Initial residual = 0.00240457, Final residual = 1.80164e-07, No Iterations 2
DILUPBiCGStab:  Solving for T, Initial residual = 0.351511, Final residual = 7.77686e-07, No Iterations 3
DICPCG:  Solving for p_rgh, Initial residual = 0.00367519, Final residual = 3.44658e-05, No Iterations 26
time step continuity errors : sum local = 6.58231e-06, global = -8.43255e-07, cumulative = 0.0454389
DILUPBiCGStab:  Solving for epsilon, Initial residual = 0.000123341, Final residual = 5.56034e-07, No Iterations 2
DILUPBiCGStab:  Solving for k, Initial residual = 0.00344993, Final residual = 2.50684e-07, No Iterations 3
ExecutionTime = 1.37 s  ClockTime = 1 s

Time = 52

DILUPBiCGStab:  Solving for Ux, Initial residual = 0.00169091, Final residual = 8.35687e-07, No Iterations 1
DILUPBiCGStab:  Solving for Uy, Initial residual = 0.00237535, Final residual = 1.62369e-07, No Iterations 2
DILUPBiCGStab:  Solving for T, Initial residual = 0.346423, Final residual = 4.08394e-07, No Iterations 4
DICPCG:  Solving for p_rgh, Initial residual = 0.00352241, Final residual = 3.29754e-05, No Iterations 28
time step continuity errors : sum local = 6.29548e-06, global = -1.79611e-06, cumulative = 0.0454371
DILUPBiCGStab:  Solving for epsilon, Initial residual = 0.000117005, Final residual = 5.38127e-07, No Iterations 2
DILUPBiCGStab:  Solving for k, Initial residual = 0.00321801, Final residual = 2.31959e-07, No Iterations 3
ExecutionTime = 1.41 s  ClockTime = 1 s

Time = 53

DILUPBiCGStab:  Solving for Ux, Initial residual = 0.00166594, Final residual = 8.22187e-07, No Iterations 1
DILUPBiCGStab:  Solving for Uy, Initial residual = 0.00234717, Final residual = 1.48548e-07, No Iterations 2
DILUPBiCGStab:  Solving for T, Initial residual = 0.351024, Final residual = 8.10499e-07, No Iterations 3
DICPCG:  Solving for p_rgh, Initial residual = 0.00338387, Final residual = 2.85043e-05, No Iterations 45
time step continuity errors : sum local = 5.43956e-06, global = -1.96906e-07, cumulative = 0.0454369
DILUPBiCGStab:  Solving for epsilon, Initial residual = 0.000118021, Final residual = 5.52093e-07, No Iterations 2
DILUPBiCGStab:  Solving for k, Initial residual = 0.00300721, Final residual = 2.1837e-07, No Iterations 3
ExecutionTime = 1.47 s  ClockTime = 2 s

Time = 54

DILUPBiCGStab:  Solving for Ux, Initial residual = 0.00164234, Final residual = 8.1021e-07, No Iterations 1
DILUPBiCGStab:  Solving for Uy, Initial residual = 0.0023212, Final residual = 1.38127e-07, No Iterations 2
DILUPBiCGStab:  Solving for T, Initial residual = 0.344473, Final residual = 8.67119e-08, No Iterations 4
DICPCG:  Solving for p_rgh, Initial residual = 0.00344989, Final residual = 3.42632e-05, No Iterations 25
time step continuity errors : sum local = 6.52964e-06, global = -2.91744e-07, cumulative = 0.0454366
DILUPBiCGStab:  Solving for epsilon, Initial residual = 0.000106452, Final residual = 5.00297e-07, No Iterations 2
DILUPBiCGStab:  Solving for k, Initial residual = 0.00280915, Final residual = 2.08914e-07, No Iterations 3
ExecutionTime = 1.49 s  ClockTime = 2 s

Time = 55

DILUPBiCGStab:  Solving for Ux, Initial residual = 0.0016182, Final residual = 7.99213e-07, No Iterations 1
DILUPBiCGStab:  Solving for Uy, Initial residual = 0.00229504, Final residual = 1.30716e-07, No Iterations 2
DILUPBiCGStab:  Solving for T, Initial residual = 0.347649, Final residual = 7.02325e-07, No Iterations 3
DICPCG:  Solving for p_rgh, Initial residual = 0.00330607, Final residual = 3.06815e-05, No Iterations 26
time step continuity errors : sum local = 5.84446e-06, global = -5.62171e-07, cumulative = 0.0454361
DILUPBiCGStab:  Solving for epsilon, Initial residual = 0.000100506, Final residual = 4.93774e-07, No Iterations 2
DILUPBiCGStab:  Solving for k, Initial residual = 0.00262708, Final residual = 2.02089e-07, No Iterations 3
ExecutionTime = 1.51 s  ClockTime = 2 s

Time = 56

DILUPBiCGStab:  Solving for Ux, Initial residual = 0.00159514, Final residual = 7.87993e-07, No Iterations 1
DILUPBiCGStab:  Solving for Uy, Initial residual = 0.0022711, Final residual = 1.23041e-07, No Iterations 2
DILUPBiCGStab:  Solving for T, Initial residual = 0.347986, Final residual = 8.08245e-07, No Iterations 3
DICPCG:  Solving for p_rgh, Initial residual = 0.00316798, Final residual = 2.93789e-05, No Iterations 27
time step continuity errors : sum local = 5.59432e-06, global = -1.22822e-06, cumulative = 0.0454348
DILUPBiCGStab:  Solving for epsilon, Initial residual = 9.5688e-05, Final residual = 4.82316e-07, No Iterations 2
DILUPBiCGStab:  Solving for k, Initial residual = 0.0024596, Final residual = 9.87416e-07, No Iterations 3
ExecutionTime = 1.53 s  ClockTime = 2 s

Time = 57

DILUPBiCGStab:  Solving for Ux, Initial residual = 0.00157269, Final residual = 7.77686e-07, No Iterations 1
DILUPBiCGStab:  Solving for Uy, Initial residual = 0.00224847, Final residual = 1.16387e-07, No Iterations 2
DILUPBiCGStab:  Solving for T, Initial residual = 0.361391, Final residual = 6.08145e-07, No Iterations 3
DICPCG:  Solving for p_rgh, Initial residual = 0.00305997, Final residual = 2.55912e-05, No Iterations 45
time step continuity errors : sum local = 4.87098e-06, global = -1.95213e-07, cumulative = 0.0454346
DILUPBiCGStab:  Solving for epsilon, Initial residual = 9.12225e-05, Final residual = 4.70919e-07, No Iterations 2
DILUPBiCGStab:  Solving for k, Initial residual = 0.00230451, Final residual = 2.0313e-07, No Iterations 3
ExecutionTime = 1.55 s  ClockTime = 2 s

Time = 58

DILUPBiCGStab:  Solving for Ux, Initial residual = 0.00155058, Final residual = 7.67837e-07, No Iterations 1
DILUPBiCGStab:  Solving for Uy, Initial residual = 0.00222644, Final residual = 1.10824e-07, No Iterations 2
DILUPBiCGStab:  Solving for T, Initial residual = 0.343011, Final residual = 2.88489e-07, No Iterations 4
DICPCG:  Solving for p_rgh, Initial residual = 0.00297099, Final residual = 2.91474e-05, No Iterations 26
time step continuity errors : sum local = 5.54179e-06, global = -4.66635e-07, cumulative = 0.0454342
DILUPBiCGStab:  Solving for epsilon, Initial residual = 8.71058e-05, Final residual = 4.58971e-07, No Iterations 2
DILUPBiCGStab:  Solving for k, Initial residual = 0.00216063, Final residual = 9.65468e-07, No Iterations 3
ExecutionTime = 1.57 s  ClockTime = 2 s

Time = 59

DILUPBiCGStab:  Solving for Ux, Initial residual = 0.0015295, Final residual = 7.58587e-07, No Iterations 1
DILUPBiCGStab:  Solving for Uy, Initial residual = 0.0022036, Final residual = 1.06826e-07, No Iterations 2
DILUPBiCGStab:  Solving for T, Initial residual = 0.341293, Final residual = 5.49547e-07, No Iterations 4
DICPCG:  Solving for p_rgh, Initial residual = 0.00288938, Final residual = 2.45886e-05, No Iterations 27
time step continuity errors : sum local = 4.67291e-06, global = -6.30177e-07, cumulative = 0.0454335
DILUPBiCGStab:  Solving for epsilon, Initial residual = 8.32832e-05, Final residual = 4.46707e-07, No Iterations 2
DILUPBiCGStab:  Solving for k, Initial residual = 0.00202751, Final residual = 9.83389e-07, No Iterations 3
ExecutionTime = 1.58 s  ClockTime = 2 s

Time = 60

DILUPBiCGStab:  Solving for Ux, Initial residual = 0.00150822, Final residual = 7.49339e-07, No Iterations 1
DILUPBiCGStab:  Solving for Uy, Initial residual = 0.00218312, Final residual = 1.02449e-07, No Iterations 2
DILUPBiCGStab:  Solving for T, Initial residual = 0.347146, Final residual = 3.80931e-07, No Iterations 4
DICPCG:  Solving for p_rgh, Initial residual = 0.00282258, Final residual = 2.61072e-05, No Iterations 27
time step continuity errors : sum local = 4.95985e-06, global = -1.07881e-06, cumulative = 0.0454325
DILUPBiCGStab:  Solving for epsilon, Initial residual = 8.65334e-05, Final residual = 4.31785e-07, No Iterations 2
DILUPBiCGStab:  Solving for k, Initial residual = 0.00190675, Final residual = 9.73018e-07, No Iterations 3
ExecutionTime = 1.6 s  ClockTime = 2 s

Time = 61

DILUPBiCGStab:  Solving for Ux, Initial residual = 0.00148806, Final residual = 7.40458e-07, No Iterations 1
DILUPBiCGStab:  Solving for Uy, Initial residual = 0.0021625, Final residual = 9.84539e-08, No Iterations 2
DILUPBiCGStab:  Solving for T, Initial residual = 0.353024, Final residual = 6.55299e-07, No Iterations 3
DICPCG:  Solving for p_rgh, Initial residual = 0.002948, Final residual = 2.88377e-05, No Iterations 28
time step continuity errors : sum local = 5.47687e-06, global = -1.5904e-06, cumulative = 0.0454309
DILUPBiCGStab:  Solving for epsilon, Initial residual = 7.76233e-05, Final residual = 4.26492e-07, No Iterations 2
DILUPBiCGStab:  Solving for k, Initial residual = 0.00179096, Final residual = 9.40031e-07, No Iterations 3
ExecutionTime = 1.62 s  ClockTime = 2 s

Time = 62

DILUPBiCGStab:  Solving for Ux, Initial residual = 0.00146823, Final residual = 7.3118e-07, No Iterations 1
DILUPBiCGStab:  Solving for Uy, Initial residual = 0.00214211, Final residual = 9.50326e-08, No Iterations 2
DILUPBiCGStab:  Solving for T, Initial residual = 0.343671, Final residual = 7.98608e-07, No Iterations 3
DICPCG:  Solving for p_rgh, Initial residual = 0.00284277, Final residual = 2.83202e-05, No Iterations 44
time step continuity errors : sum local = 5.37597e-06, global = -2.35671e-07, cumulative = 0.0454306
DILUPBiCGStab:  Solving for epsilon, Initial residual = 7.38411e-05, Final residual = 4.08375e-07, No Iterations 2
DILUPBiCGStab:  Solving for k, Initial residual = 0.0016834, Final residual = 8.88273e-07, No Iterations 3
ExecutionTime = 1.63 s  ClockTime = 2 s

Time = 63

DILUPBiCGStab:  Solving for Ux, Initial residual = 0.00144913, Final residual = 7.22319e-07, No Iterations 1
DILUPBiCGStab:  Solving for Uy, Initial residual = 0.00212183, Final residual = 9.18544e-08, No Iterations 2
DILUPBiCGStab:  Solving for T, Initial residual = 0.348795, Final residual = 6.07535e-07, No Iterations 3
DICPCG:  Solving for p_rgh, Initial residual = 0.00273178, Final residual = 2.56239e-05, No Iterations 26
time step continuity errors : sum local = 4.85922e-06, global = 2.14224e-08, cumulative = 0.0454307
DILUPBiCGStab:  Solving for epsilon, Initial residual = 7.09282e-05, Final residual = 3.98323e-07, No Iterations 2
DILUPBiCGStab:  Solving for k, Initial residual = 0.00158292, Final residual = 8.27656e-07, No Iterations 3
ExecutionTime = 1.65 s  ClockTime = 2 s

Time = 64

DILUPBiCGStab:  Solving for Ux, Initial residual = 0.00143008, Final residual = 7.1468e-07, No Iterations 1
DILUPBiCGStab:  Solving for Uy, Initial residual = 0.00210149, Final residual = 8.94281e-08, No Iterations 2
DILUPBiCGStab:  Solving for T, Initial residual = 0.342018, Final residual = 1.47577e-07, No Iterations 4
DICPCG:  Solving for p_rgh, Initial residual = 0.00263738, Final residual = 2.50239e-05, No Iterations 26
time step continuity errors : sum local = 4.74376e-06, global = 3.40383e-07, cumulative = 0.045431
DILUPBiCGStab:  Solving for epsilon, Initial residual = 6.81321e-05, Final residual = 3.87871e-07, No Iterations 2
DILUPBiCGStab:  Solving for k, Initial residual = 0.00148827, Final residual = 7.62954e-07, No Iterations 3
ExecutionTime = 1.67 s  ClockTime = 2 s

Time = 65

DILUPBiCGStab:  Solving for Ux, Initial residual = 0.00141147, Final residual = 7.07099e-07, No Iterations 1
DILUPBiCGStab:  Solving for Uy, Initial residual = 0.00208338, Final residual = 8.6727e-08, No Iterations 2
DILUPBiCGStab:  Solving for T, Initial residual = 0.335058, Final residual = 3.48337e-07, No Iterations 4
DICPCG:  Solving for p_rgh, Initial residual = 0.00256417, Final residual = 2.41168e-05, No Iterations 26
time step continuity errors : sum local = 4.57086e-06, global = 2.31386e-07, cumulative = 0.0454312
DILUPBiCGStab:  Solving for epsilon, Initial residual = 6.5512e-05, Final residual = 3.76672e-07, No Iterations 2
DILUPBiCGStab:  Solving for k, Initial residual = 0.00139913, Final residual = 6.98007e-07, No Iterations 3
ExecutionTime = 1.69 s  ClockTime = 2 s

Time = 66

DILUPBiCGStab:  Solving for Ux, Initial residual = 0.00139319, Final residual = 6.99335e-07, No Iterations 1
DILUPBiCGStab:  Solving for Uy, Initial residual = 0.00206495, Final residual = 8.41822e-08, No Iterations 2
DILUPBiCGStab:  Solving for T, Initial residual = 0.352073, Final residual = 4.39025e-07, No Iterations 3
DICPCG:  Solving for p_rgh, Initial residual = 0.00250144, Final residual = 2.42309e-05, No Iterations 26
time step continuity errors : sum local = 4.5918e-06, global = -2.15377e-07, cumulative = 0.045431
DILUPBiCGStab:  Solving for epsilon, Initial residual = 6.30788e-05, Final residual = 3.65755e-07, No Iterations 2
DILUPBiCGStab:  Solving for k, Initial residual = 0.00131507, Final residual = 6.35713e-07, No Iterations 3
ExecutionTime = 1.71 s  ClockTime = 2 s

Time = 67

DILUPBiCGStab:  Solving for Ux, Initial residual = 0.00137547, Final residual = 6.91244e-07, No Iterations 1
DILUPBiCGStab:  Solving for Uy, Initial residual = 0.00204711, Final residual = 8.20191e-08, No Iterations 2
DILUPBiCGStab:  Solving for T, Initial residual = 0.347574, Final residual = 2.48649e-07, No Iterations 4
DICPCG:  Solving for p_rgh, Initial residual = 0.00244222, Final residual = 2.14234e-05, No Iterations 27
time step continuity errors : sum local = 4.05899e-06, global = -7.86287e-07, cumulative = 0.0454302
DILUPBiCGStab:  Solving for epsilon, Initial residual = 6.07722e-05, Final residual = 3.54912e-07, No Iterations 2
DILUPBiCGStab:  Solving for k, Initial residual = 0.00123597, Final residual = 5.78458e-07, No Iterations 3
ExecutionTime = 1.73 s  ClockTime = 2 s

Time = 68

DILUPBiCGStab:  Solving for Ux, Initial residual = 0.00135821, Final residual = 6.83454e-07, No Iterations 1
DILUPBiCGStab:  Solving for Uy, Initial residual = 0.0020293, Final residual = 8.00668e-08, No Iterations 2
DILUPBiCGStab:  Solving for T, Initial residual = 0.365535, Final residual = 3.7687e-07, No Iterations 4
DICPCG:  Solving for p_rgh, Initial residual = 0.00239409, Final residual = 2.30224e-05, No Iterations 28
time step continuity errors : sum local = 4.36074e-06, global = -1.21397e-06, cumulative = 0.045429
DILUPBiCGStab:  Solving for epsilon, Initial residual = 5.85865e-05, Final residual = 3.44678e-07, No Iterations 2
DILUPBiCGStab:  Solving for k, Initial residual = 0.00116161, Final residual = 5.27016e-07, No Iterations 3
ExecutionTime = 1.75 s  ClockTime = 2 s

Time = 69

DILUPBiCGStab:  Solving for Ux, Initial residual = 0.00134136, Final residual = 6.7703e-07, No Iterations 1
DILUPBiCGStab:  Solving for Uy, Initial residual = 0.00201278, Final residual = 7.82503e-08, No Iterations 2
DILUPBiCGStab:  Solving for T, Initial residual = 0.357243, Final residual = 9.5808e-09, No Iterations 5
DICPCG:  Solving for p_rgh, Initial residual = 0.00234489, Final residual = 2.30154e-05, No Iterations 44
time step continuity errors : sum local = 4.35789e-06, global = -2.22857e-07, cumulative = 0.0454288
DILUPBiCGStab:  Solving for epsilon, Initial residual = 5.64932e-05, Final residual = 3.34438e-07, No Iterations 2
DILUPBiCGStab:  Solving for k, Initial residual = 0.00109177, Final residual = 4.81035e-07, No Iterations 3
ExecutionTime = 1.77 s  ClockTime = 2 s

Time = 70

DILUPBiCGStab:  Solving for Ux, Initial residual = 0.00132528, Final residual = 6.70651e-07, No Iterations 1
DILUPBiCGStab:  Solving for Uy, Initial residual = 0.00199622, Final residual = 7.6357e-08, No Iterations 2
DILUPBiCGStab:  Solving for T, Initial residual = 0.362606, Final residual = 1.73566e-07, No Iterations 4
DICPCG:  Solving for p_rgh, Initial residual = 0.0023011, Final residual = 2.2525e-05, No Iterations 26
time step continuity errors : sum local = 4.26205e-06, global = 1.08571e-07, cumulative = 0.0454289
DILUPBiCGStab:  Solving for epsilon, Initial residual = 5.44839e-05, Final residual = 3.24461e-07, No Iterations 2
DILUPBiCGStab:  Solving for k, Initial residual = 0.00102628, Final residual = 4.39968e-07, No Iterations 3
ExecutionTime = 1.79 s  ClockTime = 2 s

Time = 71

DILUPBiCGStab:  Solving for Ux, Initial residual = 0.00130931, Final residual = 6.64521e-07, No Iterations 1
DILUPBiCGStab:  Solving for Uy, Initial residual = 0.00197993, Final residual = 7.47988e-08, No Iterations 2
DILUPBiCGStab:  Solving for T, Initial residual = 0.352811, Final residual = 5.06448e-07, No Iterations 3
DICPCG:  Solving for p_rgh, Initial residual = 0.00225576, Final residual = 1.77282e-05, No Iterations 27
time step continuity errors : sum local = 3.35358e-06, global = 5.7073e-07, cumulative = 0.0454295
DILUPBiCGStab:  Solving for epsilon, Initial residual = 5.25582e-05, Final residual = 3.15225e-07, No Iterations 2
DILUPBiCGStab:  Solving for k, Initial residual = 0.000965028, Final residual = 4.05041e-07, No Iterations 3
ExecutionTime = 1.81 s  ClockTime = 2 s

Time = 72

DILUPBiCGStab:  Solving for Ux, Initial residual = 0.00129356, Final residual = 6.58519e-07, No Iterations 1
DILUPBiCGStab:  Solving for Uy, Initial residual = 0.00196524, Final residual = 7.31122e-08, No Iterations 2
DILUPBiCGStab:  Solving for T, Initial residual = 0.356868, Final residual = 7.19204e-07, No Iterations 3
DICPCG:  Solving for p_rgh, Initial residual = 0.00221644, Final residual = 1.77797e-05, No Iterations 27
time step continuity errors : sum local = 3.36283e-06, global = 7.10066e-07, cumulative = 0.0454302
DILUPBiCGStab:  Solving for epsilon, Initial residual = 5.07025e-05, Final residual = 3.05801e-07, No Iterations 2
DILUPBiCGStab:  Solving for k, Initial residual = 0.000907763, Final residual = 9.90075e-07, No Iterations 2
ExecutionTime = 1.84 s  ClockTime = 2 s

Time = 73

DILUPBiCGStab:  Solving for Ux, Initial residual = 0.00127819, Final residual = 6.52824e-07, No Iterations 1
DILUPBiCGStab:  Solving for Uy, Initial residual = 0.00195006, Final residual = 7.14603e-08, No Iterations 2
DILUPBiCGStab:  Solving for T, Initial residual = 0.339063, Final residual = 1.01201e-07, No Iterations 4
DICPCG:  Solving for p_rgh, Initial residual = 0.00217616, Final residual = 1.68981e-05, No Iterations 27
time step continuity errors : sum local = 3.19585e-06, global = 5.64317e-07, cumulative = 0.0454307
DILUPBiCGStab:  Solving for epsilon, Initial residual = 4.89078e-05, Final residual = 2.96434e-07, No Iterations 2
DILUPBiCGStab:  Solving for k, Initial residual = 0.000854338, Final residual = 9.46709e-07, No Iterations 2
ExecutionTime = 1.86 s  ClockTime = 2 s

Time = 74

DILUPBiCGStab:  Solving for Ux, Initial residual = 0.00126311, Final residual = 6.46994e-07, No Iterations 1
DILUPBiCGStab:  Solving for Uy, Initial residual = 0.00193598, Final residual = 6.98877e-08, No Iterations 2
DILUPBiCGStab:  Solving for T, Initial residual = 0.354597, Final residual = 8.3047e-07, No Iterations 3
DICPCG:  Solving for p_rgh, Initial residual = 0.00213464, Final residual = 2.08505e-05, No Iterations 26
time step continuity errors : sum local = 3.94301e-06, global = 1.92477e-07, cumulative = 0.0454309
DILUPBiCGStab:  Solving for epsilon, Initial residual = 4.71834e-05, Final residual = 2.87311e-07, No Iterations 2
DILUPBiCGStab:  Solving for k, Initial residual = 0.000804577, Final residual = 9.05484e-07, No Iterations 2
ExecutionTime = 1.88 s  ClockTime = 2 s

Time = 75

DILUPBiCGStab:  Solving for Ux, Initial residual = 0.00124828, Final residual = 6.41141e-07, No Iterations 1
DILUPBiCGStab:  Solving for Uy, Initial residual = 0.00192262, Final residual = 6.83933e-08, No Iterations 2
DILUPBiCGStab:  Solving for T, Initial residual = 0.351326, Final residual = 5.08304e-07, No Iterations 3
DICPCG:  Solving for p_rgh, Initial residual = 0.00209038, Final residual = 2.0877e-05, No Iterations 26
time step continuity errors : sum local = 3.94761e-06, global = -2.07594e-07, cumulative = 0.0454307
DILUPBiCGStab:  Solving for epsilon, Initial residual = 4.55084e-05, Final residual = 2.78989e-07, No Iterations 2
DILUPBiCGStab:  Solving for k, Initial residual = 0.000758343, Final residual = 8.66736e-07, No Iterations 2
ExecutionTime = 1.9 s  ClockTime = 2 s

Time = 76

DILUPBiCGStab:  Solving for Ux, Initial residual = 0.00123396, Final residual = 6.35877e-07, No Iterations 1
DILUPBiCGStab:  Solving for Uy, Initial residual = 0.0019098, Final residual = 6.69379e-08, No Iterations 2
DILUPBiCGStab:  Solving for T, Initial residual = 0.339346, Final residual = 9.94653e-07, No Iterations 3
DICPCG:  Solving for p_rgh, Initial residual = 0.00204917, Final residual = 1.66746e-05, No Iterations 27
time step continuity errors : sum local = 3.15252e-06, global = -4.49129e-07, cumulative = 0.0454303
DILUPBiCGStab:  Solving for epsilon, Initial residual = 4.39328e-05, Final residual = 2.71104e-07, No Iterations 2
DILUPBiCGStab:  Solving for k, Initial residual = 0.000715352, Final residual = 8.30096e-07, No Iterations 2
ExecutionTime = 1.92 s  ClockTime = 2 s

Time = 77

DILUPBiCGStab:  Solving for Ux, Initial residual = 0.00121961, Final residual = 6.30918e-07, No Iterations 1
DILUPBiCGStab:  Solving for Uy, Initial residual = 0.00189752, Final residual = 6.55617e-08, No Iterations 2
DILUPBiCGStab:  Solving for T, Initial residual = 0.347421, Final residual = 5.52095e-07, No Iterations 3
DICPCG:  Solving for p_rgh, Initial residual = 0.00201293, Final residual = 1.66284e-05, No Iterations 27
time step continuity errors : sum local = 3.14316e-06, global = -5.07489e-07, cumulative = 0.0454298
DILUPBiCGStab:  Solving for epsilon, Initial residual = 4.24254e-05, Final residual = 2.63019e-07, No Iterations 2
DILUPBiCGStab:  Solving for k, Initial residual = 0.000675426, Final residual = 7.96212e-07, No Iterations 2
ExecutionTime = 1.94 s  ClockTime = 2 s

Time = 78

DILUPBiCGStab:  Solving for Ux, Initial residual = 0.00120582, Final residual = 6.25867e-07, No Iterations 1
DILUPBiCGStab:  Solving for Uy, Initial residual = 0.00188577, Final residual = 6.42689e-08, No Iterations 2
DILUPBiCGStab:  Solving for T, Initial residual = 0.346867, Final residual = 4.02937e-07, No Iterations 4
DICPCG:  Solving for p_rgh, Initial residual = 0.00197888, Final residual = 1.57794e-05, No Iterations 27
time step continuity errors : sum local = 2.98205e-06, global = -3.66875e-07, cumulative = 0.0454294
DILUPBiCGStab:  Solving for epsilon, Initial residual = 4.09775e-05, Final residual = 2.55231e-07, No Iterations 2
DILUPBiCGStab:  Solving for k, Initial residual = 0.000638347, Final residual = 7.64282e-07, No Iterations 2
ExecutionTime = 1.96 s  ClockTime = 2 s

Time = 79

DILUPBiCGStab:  Solving for Ux, Initial residual = 0.00119213, Final residual = 6.21458e-07, No Iterations 1
DILUPBiCGStab:  Solving for Uy, Initial residual = 0.0018749, Final residual = 6.29859e-08, No Iterations 2
DILUPBiCGStab:  Solving for T, Initial residual = 0.341968, Final residual = 1.26135e-07, No Iterations 4
DICPCG:  Solving for p_rgh, Initial residual = 0.00194501, Final residual = 1.92032e-05, No Iterations 26
time step continuity errors : sum local = 3.62839e-06, global = -1.38764e-07, cumulative = 0.0454293
DILUPBiCGStab:  Solving for epsilon, Initial residual = 3.96415e-05, Final residual = 2.47714e-07, No Iterations 2
DILUPBiCGStab:  Solving for k, Initial residual = 0.000604027, Final residual = 7.33485e-07, No Iterations 2
ExecutionTime = 1.98 s  ClockTime = 2 s

Time = 80

DILUPBiCGStab:  Solving for Ux, Initial residual = 0.00117868, Final residual = 6.16888e-07, No Iterations 1
DILUPBiCGStab:  Solving for Uy, Initial residual = 0.00186436, Final residual = 6.17459e-08, No Iterations 2
DILUPBiCGStab:  Solving for T, Initial residual = 0.341447, Final residual = 8.69543e-07, No Iterations 4
DICPCG:  Solving for p_rgh, Initial residual = 0.0019095, Final residual = 1.88423e-05, No Iterations 26
time step continuity errors : sum local = 3.55967e-06, global = 1.59922e-07, cumulative = 0.0454294
DILUPBiCGStab:  Solving for epsilon, Initial residual = 3.83721e-05, Final residual = 2.40871e-07, No Iterations 2
DILUPBiCGStab:  Solving for k, Initial residual = 0.000572175, Final residual = 7.04427e-07, No Iterations 2
ExecutionTime = 2 s  ClockTime = 2 s

Time = 81

DILUPBiCGStab:  Solving for Ux, Initial residual = 0.0011654, Final residual = 6.12267e-07, No Iterations 1
DILUPBiCGStab:  Solving for Uy, Initial residual = 0.00185442, Final residual = 6.05854e-08, No Iterations 2
DILUPBiCGStab:  Solving for T, Initial residual = 0.350919, Final residual = 3.76078e-07, No Iterations 4
DICPCG:  Solving for p_rgh, Initial residual = 0.00187678, Final residual = 1.49852e-05, No Iterations 27
time step continuity errors : sum local = 2.83075e-06, global = 4.6401e-07, cumulative = 0.0454299
DILUPBiCGStab:  Solving for epsilon, Initial residual = 3.71591e-05, Final residual = 2.34267e-07, No Iterations 2
DILUPBiCGStab:  Solving for k, Initial residual = 0.000542684, Final residual = 6.76995e-07, No Iterations 2
ExecutionTime = 2.02 s  ClockTime = 2 s

Time = 82

DILUPBiCGStab:  Solving for Ux, Initial residual = 0.00115249, Final residual = 6.07839e-07, No Iterations 1
DILUPBiCGStab:  Solving for Uy, Initial residual = 0.00184436, Final residual = 5.95118e-08, No Iterations 2
DILUPBiCGStab:  Solving for T, Initial residual = 0.344029, Final residual = 6.35221e-07, No Iterations 3
DICPCG:  Solving for p_rgh, Initial residual = 0.0018467, Final residual = 1.56102e-05, No Iterations 27
time step continuity errors : sum local = 2.94875e-06, global = 6.4864e-07, cumulative = 0.0454305
DILUPBiCGStab:  Solving for epsilon, Initial residual = 3.60458e-05, Final residual = 2.2809e-07, No Iterations 2
DILUPBiCGStab:  Solving for k, Initial residual = 0.000515375, Final residual = 6.50974e-07, No Iterations 2
ExecutionTime = 2.04 s  ClockTime = 2 s

Time = 83

DILUPBiCGStab:  Solving for Ux, Initial residual = 0.00113983, Final residual = 6.03753e-07, No Iterations 1
DILUPBiCGStab:  Solving for Uy, Initial residual = 0.00183405, Final residual = 5.84997e-08, No Iterations 2
DILUPBiCGStab:  Solving for T, Initial residual = 0.341277, Final residual = 9.59007e-07, No Iterations 4
DICPCG:  Solving for p_rgh, Initial residual = 0.00181566, Final residual = 1.59016e-05, No Iterations 27
time step continuity errors : sum local = 3.00392e-06, global = 7.17402e-07, cumulative = 0.0454313
DILUPBiCGStab:  Solving for epsilon, Initial residual = 3.49787e-05, Final residual = 2.21932e-07, No Iterations 2
DILUPBiCGStab:  Solving for k, Initial residual = 0.000490053, Final residual = 6.26901e-07, No Iterations 2
ExecutionTime = 2.06 s  ClockTime = 2 s

Time = 84

DILUPBiCGStab:  Solving for Ux, Initial residual = 0.00112729, Final residual = 5.99791e-07, No Iterations 1
DILUPBiCGStab:  Solving for Uy, Initial residual = 0.00182399, Final residual = 5.7505e-08, No Iterations 2
DILUPBiCGStab:  Solving for T, Initial residual = 0.345541, Final residual = 6.09688e-07, No Iterations 3
DICPCG:  Solving for p_rgh, Initial residual = 0.00178471, Final residual = 1.55949e-05, No Iterations 27
time step continuity errors : sum local = 2.94613e-06, global = 6.82271e-07, cumulative = 0.0454319
DILUPBiCGStab:  Solving for epsilon, Initial residual = 3.39646e-05, Final residual = 9.97508e-07, No Iterations 1
DILUPBiCGStab:  Solving for k, Initial residual = 0.000467174, Final residual = 6.04262e-07, No Iterations 2
ExecutionTime = 2.08 s  ClockTime = 2 s

Time = 85

DILUPBiCGStab:  Solving for Ux, Initial residual = 0.00111501, Final residual = 5.95775e-07, No Iterations 1
DILUPBiCGStab:  Solving for Uy, Initial residual = 0.00181308, Final residual = 5.658e-08, No Iterations 2
DILUPBiCGStab:  Solving for T, Initial residual = 0.33076, Final residual = 1.81898e-07, No Iterations 4
DICPCG:  Solving for p_rgh, Initial residual = 0.00175382, Final residual = 1.49546e-05, No Iterations 27
time step continuity errors : sum local = 2.82528e-06, global = 5.83576e-07, cumulative = 0.0454325
DILUPBiCGStab:  Solving for epsilon, Initial residual = 3.31831e-05, Final residual = 9.75824e-07, No Iterations 1
DILUPBiCGStab:  Solving for k, Initial residual = 0.000445995, Final residual = 5.84049e-07, No Iterations 2
ExecutionTime = 2.1 s  ClockTime = 2 s

Time = 86

DILUPBiCGStab:  Solving for Ux, Initial residual = 0.00110314, Final residual = 5.91722e-07, No Iterations 1
DILUPBiCGStab:  Solving for Uy, Initial residual = 0.00180139, Final residual = 5.57208e-08, No Iterations 2
DILUPBiCGStab:  Solving for T, Initial residual = 0.323426, Final residual = 6.43133e-07, No Iterations 3
DICPCG:  Solving for p_rgh, Initial residual = 0.0017241, Final residual = 1.43523e-05, No Iterations 27
time step continuity errors : sum local = 2.71152e-06, global = 4.70549e-07, cumulative = 0.045433
DILUPBiCGStab:  Solving for epsilon, Initial residual = 3.23773e-05, Final residual = 9.53403e-07, No Iterations 1
DILUPBiCGStab:  Solving for k, Initial residual = 0.000426339, Final residual = 5.64735e-07, No Iterations 2
ExecutionTime = 2.13 s  ClockTime = 2 s

Time = 87

DILUPBiCGStab:  Solving for Ux, Initial residual = 0.00109128, Final residual = 5.87433e-07, No Iterations 1
DILUPBiCGStab:  Solving for Uy, Initial residual = 0.00178932, Final residual = 5.49166e-08, No Iterations 2
DILUPBiCGStab:  Solving for T, Initial residual = 0.343322, Final residual = 5.8607e-07, No Iterations 3
DICPCG:  Solving for p_rgh, Initial residual = 0.00169609, Final residual = 1.39693e-05, No Iterations 27
time step continuity errors : sum local = 2.63914e-06, global = 3.86448e-07, cumulative = 0.0454334
DILUPBiCGStab:  Solving for epsilon, Initial residual = 3.16097e-05, Final residual = 9.31528e-07, No Iterations 1
DILUPBiCGStab:  Solving for k, Initial residual = 0.000408158, Final residual = 5.45748e-07, No Iterations 2
ExecutionTime = 2.15 s  ClockTime = 2 s

Time = 88

DILUPBiCGStab:  Solving for Ux, Initial residual = 0.00107986, Final residual = 5.83083e-07, No Iterations 1
DILUPBiCGStab:  Solving for Uy, Initial residual = 0.00177724, Final residual = 5.41517e-08, No Iterations 2
DILUPBiCGStab:  Solving for T, Initial residual = 0.32901, Final residual = 6.70896e-07, No Iterations 3
DICPCG:  Solving for p_rgh, Initial residual = 0.00167246, Final residual = 1.38039e-05, No Iterations 27
time step continuity errors : sum local = 2.60785e-06, global = 3.57962e-07, cumulative = 0.0454337
DILUPBiCGStab:  Solving for epsilon, Initial residual = 3.09117e-05, Final residual = 9.10477e-07, No Iterations 1
DILUPBiCGStab:  Solving for k, Initial residual = 0.000391268, Final residual = 5.27371e-07, No Iterations 2
ExecutionTime = 2.19 s  ClockTime = 2 s

Time = 89

DILUPBiCGStab:  Solving for Ux, Initial residual = 0.00106848, Final residual = 5.78946e-07, No Iterations 1
DILUPBiCGStab:  Solving for Uy, Initial residual = 0.00176464, Final residual = 5.34455e-08, No Iterations 2
DILUPBiCGStab:  Solving for T, Initial residual = 0.34412, Final residual = 6.45246e-07, No Iterations 3
DICPCG:  Solving for p_rgh, Initial residual = 0.00164918, Final residual = 1.38414e-05, No Iterations 27
time step continuity errors : sum local = 2.61496e-06, global = 3.8953e-07, cumulative = 0.0454341
DILUPBiCGStab:  Solving for epsilon, Initial residual = 3.02462e-05, Final residual = 8.90163e-07, No Iterations 1
DILUPBiCGStab:  Solving for k, Initial residual = 0.000375661, Final residual = 5.10229e-07, No Iterations 2
ExecutionTime = 2.21 s  ClockTime = 2 s

Time = 90

DILUPBiCGStab:  Solving for Ux, Initial residual = 0.00105741, Final residual = 5.74888e-07, No Iterations 1
DILUPBiCGStab:  Solving for Uy, Initial residual = 0.00175135, Final residual = 5.27424e-08, No Iterations 2
DILUPBiCGStab:  Solving for T, Initial residual = 0.338655, Final residual = 9.20523e-07, No Iterations 3
DICPCG:  Solving for p_rgh, Initial residual = 0.00162672, Final residual = 1.41004e-05, No Iterations 27
time step continuity errors : sum local = 2.66396e-06, global = 4.64445e-07, cumulative = 0.0454346
DILUPBiCGStab:  Solving for epsilon, Initial residual = 2.96034e-05, Final residual = 8.70289e-07, No Iterations 1
DILUPBiCGStab:  Solving for k, Initial residual = 0.000361206, Final residual = 4.93677e-07, No Iterations 2
ExecutionTime = 2.23 s  ClockTime = 2 s

Time = 91

DILUPBiCGStab:  Solving for Ux, Initial residual = 0.00104669, Final residual = 5.70819e-07, No Iterations 1
DILUPBiCGStab:  Solving for Uy, Initial residual = 0.00173765, Final residual = 5.2079e-08, No Iterations 2
DILUPBiCGStab:  Solving for T, Initial residual = 0.344386, Final residual = 2.80645e-07, No Iterations 4
DICPCG:  Solving for p_rgh, Initial residual = 0.00160403, Final residual = 1.45505e-05, No Iterations 27
time step continuity errors : sum local = 2.74912e-06, global = 5.55517e-07, cumulative = 0.0454351
DILUPBiCGStab:  Solving for epsilon, Initial residual = 2.89896e-05, Final residual = 8.512e-07, No Iterations 1
DILUPBiCGStab:  Solving for k, Initial residual = 0.000347809, Final residual = 4.77879e-07, No Iterations 2
ExecutionTime = 2.25 s  ClockTime = 2 s

Time = 92

DILUPBiCGStab:  Solving for Ux, Initial residual = 0.00103611, Final residual = 5.66797e-07, No Iterations 1
DILUPBiCGStab:  Solving for Uy, Initial residual = 0.00172399, Final residual = 5.14682e-08, No Iterations 2
DILUPBiCGStab:  Solving for T, Initial residual = 0.327855, Final residual = 5.65246e-07, No Iterations 3
DICPCG:  Solving for p_rgh, Initial residual = 0.00158127, Final residual = 1.50595e-05, No Iterations 27
time step continuity errors : sum local = 2.84544e-06, global = 6.35602e-07, cumulative = 0.0454358
DILUPBiCGStab:  Solving for epsilon, Initial residual = 2.83903e-05, Final residual = 8.32415e-07, No Iterations 1
DILUPBiCGStab:  Solving for k, Initial residual = 0.000335347, Final residual = 4.63263e-07, No Iterations 2
ExecutionTime = 2.27 s  ClockTime = 2 s

Time = 93

DILUPBiCGStab:  Solving for Ux, Initial residual = 0.00102579, Final residual = 5.63017e-07, No Iterations 1
DILUPBiCGStab:  Solving for Uy, Initial residual = 0.00170985, Final residual = 5.09316e-08, No Iterations 2
DILUPBiCGStab:  Solving for T, Initial residual = 0.335631, Final residual = 1.24413e-07, No Iterations 4
DICPCG:  Solving for p_rgh, Initial residual = 0.00155801, Final residual = 1.54499e-05, No Iterations 27
time step continuity errors : sum local = 2.91936e-06, global = 6.85409e-07, cumulative = 0.0454365
DILUPBiCGStab:  Solving for epsilon, Initial residual = 2.78005e-05, Final residual = 8.14173e-07, No Iterations 1
DILUPBiCGStab:  Solving for k, Initial residual = 0.000323776, Final residual = 4.49327e-07, No Iterations 2
ExecutionTime = 2.29 s  ClockTime = 2 s

Time = 94

DILUPBiCGStab:  Solving for Ux, Initial residual = 0.00101565, Final residual = 5.59222e-07, No Iterations 1
DILUPBiCGStab:  Solving for Uy, Initial residual = 0.00169562, Final residual = 9.99931e-07, No Iterations 1
DILUPBiCGStab:  Solving for T, Initial residual = 0.333852, Final residual = 5.88959e-07, No Iterations 3
DICPCG:  Solving for p_rgh, Initial residual = 0.00153584, Final residual = 1.51217e-05, No Iterations 28
time step continuity errors : sum local = 2.85753e-06, global = 6.84334e-07, cumulative = 0.0454371
DILUPBiCGStab:  Solving for epsilon, Initial residual = 2.72287e-05, Final residual = 7.96896e-07, No Iterations 1
DILUPBiCGStab:  Solving for k, Initial residual = 0.000313041, Final residual = 4.36025e-07, No Iterations 2
ExecutionTime = 2.31 s  ClockTime = 2 s

Time = 95

DILUPBiCGStab:  Solving for Ux, Initial residual = 0.00100575, Final residual = 5.55266e-07, No Iterations 1
DILUPBiCGStab:  Solving for Uy, Initial residual = 0.00168042, Final residual = 9.92029e-07, No Iterations 1
DILUPBiCGStab:  Solving for T, Initial residual = 0.340902, Final residual = 5.99618e-07, No Iterations 3
DICPCG:  Solving for p_rgh, Initial residual = 0.0015121, Final residual = 1.49359e-05, No Iterations 28
time step continuity errors : sum local = 2.82256e-06, global = 6.50535e-07, cumulative = 0.0454378
DILUPBiCGStab:  Solving for epsilon, Initial residual = 2.66647e-05, Final residual = 7.79923e-07, No Iterations 1
DILUPBiCGStab:  Solving for k, Initial residual = 0.000303166, Final residual = 4.23781e-07, No Iterations 2
ExecutionTime = 2.34 s  ClockTime = 2 s

Time = 96

DILUPBiCGStab:  Solving for Ux, Initial residual = 0.000996109, Final residual = 5.51114e-07, No Iterations 1
DILUPBiCGStab:  Solving for Uy, Initial residual = 0.00166552, Final residual = 9.84523e-07, No Iterations 1
DILUPBiCGStab:  Solving for T, Initial residual = 0.337278, Final residual = 8.13816e-08, No Iterations 4
DICPCG:  Solving for p_rgh, Initial residual = 0.00148899, Final residual = 1.4874e-05, No Iterations 27
time step continuity errors : sum local = 2.81101e-06, global = 6.04782e-07, cumulative = 0.0454384
DILUPBiCGStab:  Solving for epsilon, Initial residual = 2.61201e-05, Final residual = 7.63437e-07, No Iterations 1
DILUPBiCGStab:  Solving for k, Initial residual = 0.000293943, Final residual = 4.11955e-07, No Iterations 2
ExecutionTime = 2.36 s  ClockTime = 2 s

Time = 97

DILUPBiCGStab:  Solving for Ux, Initial residual = 0.000986756, Final residual = 5.46741e-07, No Iterations 1
DILUPBiCGStab:  Solving for Uy, Initial residual = 0.00165063, Final residual = 9.76797e-07, No Iterations 1
DILUPBiCGStab:  Solving for T, Initial residual = 0.331505, Final residual = 1.36312e-07, No Iterations 4
DICPCG:  Solving for p_rgh, Initial residual = 0.00147014, Final residual = 1.46619e-05, No Iterations 27
time step continuity errors : sum local = 2.77107e-06, global = 5.57618e-07, cumulative = 0.045439
DILUPBiCGStab:  Solving for epsilon, Initial residual = 2.55865e-05, Final residual = 7.47768e-07, No Iterations 1
[...]
ExecutionTime = 66.67 s  ClockTime = 68 s

Time = 3577

DILUPBiCGStab:  Solving for Ux, Initial residual = 6.29732e-08, Final residual = 6.29732e-08, No Iterations 0
DILUPBiCGStab:  Solving for Uy, Initial residual = 1.1862e-07, Final residual = 1.1862e-07, No Iterations 0
DILUPBiCGStab:  Solving for T, Initial residual = 0.335934, Final residual = 1.4048e-07, No Iterations 4
DICPCG:  Solving for p_rgh, Initial residual = 7e-06, Final residual = 9.81598e-08, No Iterations 9
time step continuity errors : sum local = 1.80019e-08, global = -2.71834e-09, cumulative = 0.0454409
DILUPBiCGStab:  Solving for epsilon, Initial residual = 1.22757e-06, Final residual = 1.01274e-07, No Iterations 1
DILUPBiCGStab:  Solving for k, Initial residual = 2.12229e-06, Final residual = 7.42868e-07, No Iterations 1
ExecutionTime = 66.69 s  ClockTime = 68 s

Time = 3578

DILUPBiCGStab:  Solving for Ux, Initial residual = 5.43102e-08, Final residual = 5.43102e-08, No Iterations 0
DILUPBiCGStab:  Solving for Uy, Initial residual = 1.25492e-07, Final residual = 1.25492e-07, No Iterations 0
DILUPBiCGStab:  Solving for T, Initial residual = 0.345663, Final residual = 1.61472e-07, No Iterations 4
DICPCG:  Solving for p_rgh, Initial residual = 5.66603e-06, Final residual = 9.20616e-08, No Iterations 15
time step continuity errors : sum local = 1.68835e-08, global = -2.02386e-09, cumulative = 0.0454409
DILUPBiCGStab:  Solving for epsilon, Initial residual = 6.53675e-07, Final residual = 6.53675e-07, No Iterations 0
DILUPBiCGStab:  Solving for k, Initial residual = 2.14243e-06, Final residual = 7.81074e-07, No Iterations 1
ExecutionTime = 66.71 s  ClockTime = 68 s

Time = 3579

DILUPBiCGStab:  Solving for Ux, Initial residual = 5.68565e-08, Final residual = 5.68565e-08, No Iterations 0
DILUPBiCGStab:  Solving for Uy, Initial residual = 1.2126e-07, Final residual = 1.2126e-07, No Iterations 0
DILUPBiCGStab:  Solving for T, Initial residual = 0.339984, Final residual = 7.88781e-07, No Iterations 3
DICPCG:  Solving for p_rgh, Initial residual = 6.16442e-06, Final residual = 8.74707e-08, No Iterations 8
time step continuity errors : sum local = 1.60416e-08, global = -2.01863e-09, cumulative = 0.0454409
DILUPBiCGStab:  Solving for epsilon, Initial residual = 8.29294e-07, Final residual = 8.29294e-07, No Iterations 0
DILUPBiCGStab:  Solving for k, Initial residual = 2.22458e-06, Final residual = 8.00278e-07, No Iterations 1
ExecutionTime = 66.73 s  ClockTime = 68 s

Time = 3580

DILUPBiCGStab:  Solving for Ux, Initial residual = 6.29635e-08, Final residual = 6.29635e-08, No Iterations 0
DILUPBiCGStab:  Solving for Uy, Initial residual = 1.19211e-07, Final residual = 1.19211e-07, No Iterations 0
DILUPBiCGStab:  Solving for T, Initial residual = 0.339773, Final residual = 4.96035e-07, No Iterations 3
DICPCG:  Solving for p_rgh, Initial residual = 6.64036e-06, Final residual = 9.78254e-08, No Iterations 9
time step continuity errors : sum local = 1.79406e-08, global = -1.21697e-09, cumulative = 0.0454409
DILUPBiCGStab:  Solving for epsilon, Initial residual = 1.05849e-06, Final residual = 1.29295e-07, No Iterations 1
DILUPBiCGStab:  Solving for k, Initial residual = 2.12355e-06, Final residual = 7.42897e-07, No Iterations 1
ExecutionTime = 66.74 s  ClockTime = 68 s

Time = 3581

DILUPBiCGStab:  Solving for Ux, Initial residual = 5.35964e-08, Final residual = 5.35964e-08, No Iterations 0
DILUPBiCGStab:  Solving for Uy, Initial residual = 1.18483e-07, Final residual = 1.18483e-07, No Iterations 0
DILUPBiCGStab:  Solving for T, Initial residual = 0.32745, Final residual = 1.05991e-07, No Iterations 4
DICPCG:  Solving for p_rgh, Initial residual = 5.68206e-06, Final residual = 9.92054e-08, No Iterations 11
time step continuity errors : sum local = 1.81936e-08, global = -1.22792e-10, cumulative = 0.0454409
DILUPBiCGStab:  Solving for epsilon, Initial residual = 6.0078e-07, Final residual = 6.0078e-07, No Iterations 0
DILUPBiCGStab:  Solving for k, Initial residual = 2.11413e-06, Final residual = 7.62361e-07, No Iterations 1
ExecutionTime = 66.76 s  ClockTime = 68 s

Time = 3582

DILUPBiCGStab:  Solving for Ux, Initial residual = 5.53775e-08, Final residual = 5.53775e-08, No Iterations 0
DILUPBiCGStab:  Solving for Uy, Initial residual = 1.15878e-07, Final residual = 1.15878e-07, No Iterations 0
DILUPBiCGStab:  Solving for T, Initial residual = 0.328943, Final residual = 6.12162e-07, No Iterations 3
DICPCG:  Solving for p_rgh, Initial residual = 5.57475e-06, Final residual = 9.0424e-08, No Iterations 15
time step continuity errors : sum local = 1.65832e-08, global = 9.51542e-10, cumulative = 0.0454409
DILUPBiCGStab:  Solving for epsilon, Initial residual = 8.64167e-07, Final residual = 8.64167e-07, No Iterations 0
DILUPBiCGStab:  Solving for k, Initial residual = 2.18202e-06, Final residual = 7.71713e-07, No Iterations 1
ExecutionTime = 66.78 s  ClockTime = 68 s

Time = 3583

DILUPBiCGStab:  Solving for Ux, Initial residual = 6.41714e-08, Final residual = 6.41714e-08, No Iterations 0
DILUPBiCGStab:  Solving for Uy, Initial residual = 1.19757e-07, Final residual = 1.19757e-07, No Iterations 0
DILUPBiCGStab:  Solving for T, Initial residual = 0.339675, Final residual = 4.56113e-07, No Iterations 3
DICPCG:  Solving for p_rgh, Initial residual = 6.49109e-06, Final residual = 9.46967e-08, No Iterations 9
time step continuity errors : sum local = 1.73667e-08, global = 1.91683e-09, cumulative = 0.0454409
DILUPBiCGStab:  Solving for epsilon, Initial residual = 1.20105e-06, Final residual = 9.1568e-08, No Iterations 1
DILUPBiCGStab:  Solving for k, Initial residual = 2.1941e-06, Final residual = 7.69212e-07, No Iterations 1
ExecutionTime = 66.79 s  ClockTime = 68 s

Time = 3584

DILUPBiCGStab:  Solving for Ux, Initial residual = 5.90079e-08, Final residual = 5.90079e-08, No Iterations 0
DILUPBiCGStab:  Solving for Uy, Initial residual = 1.29266e-07, Final residual = 1.29266e-07, No Iterations 0
DILUPBiCGStab:  Solving for T, Initial residual = 0.333524, Final residual = 6.52511e-07, No Iterations 3
DICPCG:  Solving for p_rgh, Initial residual = 5.69565e-06, Final residual = 9.71775e-08, No Iterations 14
time step continuity errors : sum local = 1.78216e-08, global = 2.00879e-09, cumulative = 0.0454409
DILUPBiCGStab:  Solving for epsilon, Initial residual = 6.63059e-07, Final residual = 6.63059e-07, No Iterations 0
DILUPBiCGStab:  Solving for k, Initial residual = 2.19382e-06, Final residual = 8.01425e-07, No Iterations 1
ExecutionTime = 66.81 s  ClockTime = 68 s

Time = 3585

DILUPBiCGStab:  Solving for Ux, Initial residual = 6.25497e-08, Final residual = 6.25497e-08, No Iterations 0
DILUPBiCGStab:  Solving for Uy, Initial residual = 1.32222e-07, Final residual = 1.32222e-07, No Iterations 0
DILUPBiCGStab:  Solving for T, Initial residual = 0.333554, Final residual = 4.79285e-07, No Iterations 3
DICPCG:  Solving for p_rgh, Initial residual = 6.52712e-06, Final residual = 9.88997e-08, No Iterations 8
time step continuity errors : sum local = 1.81374e-08, global = 2.37996e-09, cumulative = 0.0454409
DILUPBiCGStab:  Solving for epsilon, Initial residual = 8.58922e-07, Final residual = 8.58922e-07, No Iterations 0
DILUPBiCGStab:  Solving for k, Initial residual = 2.28256e-06, Final residual = 8.30563e-07, No Iterations 1
ExecutionTime = 66.82 s  ClockTime = 68 s

Time = 3586

DILUPBiCGStab:  Solving for Ux, Initial residual = 6.76613e-08, Final residual = 6.76613e-08, No Iterations 0
DILUPBiCGStab:  Solving for Uy, Initial residual = 1.3213e-07, Final residual = 1.3213e-07, No Iterations 0
DILUPBiCGStab:  Solving for T, Initial residual = 0.333278, Final residual = 7.26446e-07, No Iterations 3
DICPCG:  Solving for p_rgh, Initial residual = 7.27459e-06, Final residual = 9.66442e-08, No Iterations 9
time step continuity errors : sum local = 1.77237e-08, global = 2.16493e-09, cumulative = 0.0454409
DILUPBiCGStab:  Solving for epsilon, Initial residual = 1.09936e-06, Final residual = 1.22258e-07, No Iterations 1
DILUPBiCGStab:  Solving for k, Initial residual = 2.20461e-06, Final residual = 7.87066e-07, No Iterations 1
ExecutionTime = 66.84 s  ClockTime = 68 s

Time = 3587

DILUPBiCGStab:  Solving for Ux, Initial residual = 5.65795e-08, Final residual = 5.65795e-08, No Iterations 0
DILUPBiCGStab:  Solving for Uy, Initial residual = 1.3204e-07, Final residual = 1.3204e-07, No Iterations 0
DILUPBiCGStab:  Solving for T, Initial residual = 0.325536, Final residual = 1.30343e-07, No Iterations 4
DICPCG:  Solving for p_rgh, Initial residual = 5.99045e-06, Final residual = 9.75861e-08, No Iterations 9
time step continuity errors : sum local = 1.78965e-08, global = 1.59406e-09, cumulative = 0.0454409
DILUPBiCGStab:  Solving for epsilon, Initial residual = 5.68126e-07, Final residual = 5.68126e-07, No Iterations 0
DILUPBiCGStab:  Solving for k, Initial residual = 2.22035e-06, Final residual = 8.08722e-07, No Iterations 1
ExecutionTime = 66.85 s  ClockTime = 68 s

Time = 3588

DILUPBiCGStab:  Solving for Ux, Initial residual = 5.66585e-08, Final residual = 5.66585e-08, No Iterations 0
DILUPBiCGStab:  Solving for Uy, Initial residual = 1.21114e-07, Final residual = 1.21114e-07, No Iterations 0
DILUPBiCGStab:  Solving for T, Initial residual = 0.328846, Final residual = 4.72746e-07, No Iterations 4
DICPCG:  Solving for p_rgh, Initial residual = 5.50185e-06, Final residual = 9.96305e-08, No Iterations 11
time step continuity errors : sum local = 1.82714e-08, global = 5.62061e-10, cumulative = 0.0454409
DILUPBiCGStab:  Solving for epsilon, Initial residual = 8.04336e-07, Final residual = 8.04336e-07, No Iterations 0
DILUPBiCGStab:  Solving for k, Initial residual = 2.27368e-06, Final residual = 8.07494e-07, No Iterations 1
ExecutionTime = 66.87 s  ClockTime = 68 s

Time = 3589

DILUPBiCGStab:  Solving for Ux, Initial residual = 6.2696e-08, Final residual = 6.2696e-08, No Iterations 0
DILUPBiCGStab:  Solving for Uy, Initial residual = 1.21143e-07, Final residual = 1.21143e-07, No Iterations 0
DILUPBiCGStab:  Solving for T, Initial residual = 0.323625, Final residual = 2.20813e-07, No Iterations 4
DICPCG:  Solving for p_rgh, Initial residual = 5.58195e-06, Final residual = 9.97066e-08, No Iterations 14
time step continuity errors : sum local = 1.82854e-08, global = -6.71997e-10, cumulative = 0.0454409
DILUPBiCGStab:  Solving for epsilon, Initial residual = 1.13451e-06, Final residual = 9.03145e-08, No Iterations 1
DILUPBiCGStab:  Solving for k, Initial residual = 2.17459e-06, Final residual = 7.76112e-07, No Iterations 1
ExecutionTime = 66.88 s  ClockTime = 68 s

Time = 3590

DILUPBiCGStab:  Solving for Ux, Initial residual = 5.60337e-08, Final residual = 5.60337e-08, No Iterations 0
DILUPBiCGStab:  Solving for Uy, Initial residual = 1.23512e-07, Final residual = 1.23512e-07, No Iterations 0
DILUPBiCGStab:  Solving for T, Initial residual = 0.327696, Final residual = 6.33017e-07, No Iterations 3
DICPCG:  Solving for p_rgh, Initial residual = 5.41785e-06, Final residual = 9.66656e-08, No Iterations 9
time step continuity errors : sum local = 1.77278e-08, global = -1.72143e-09, cumulative = 0.0454409
DILUPBiCGStab:  Solving for epsilon, Initial residual = 6.33353e-07, Final residual = 6.33353e-07, No Iterations 0
DILUPBiCGStab:  Solving for k, Initial residual = 2.1865e-06, Final residual = 8.01841e-07, No Iterations 1
ExecutionTime = 66.9 s  ClockTime = 68 s

Time = 3591

DILUPBiCGStab:  Solving for Ux, Initial residual = 5.7669e-08, Final residual = 5.7669e-08, No Iterations 0
DILUPBiCGStab:  Solving for Uy, Initial residual = 1.22796e-07, Final residual = 1.22796e-07, No Iterations 0
DILUPBiCGStab:  Solving for T, Initial residual = 0.324865, Final residual = 3.62194e-07, No Iterations 3
DICPCG:  Solving for p_rgh, Initial residual = 6.32496e-06, Final residual = 9.84349e-08, No Iterations 13
time step continuity errors : sum local = 1.80523e-08, global = -2.29191e-09, cumulative = 0.0454409
DILUPBiCGStab:  Solving for epsilon, Initial residual = 8.54412e-07, Final residual = 8.54412e-07, No Iterations 0
DILUPBiCGStab:  Solving for k, Initial residual = 2.26901e-06, Final residual = 8.27367e-07, No Iterations 1
ExecutionTime = 66.92 s  ClockTime = 68 s

Time = 3592

DILUPBiCGStab:  Solving for Ux, Initial residual = 6.35224e-08, Final residual = 6.35224e-08, No Iterations 0
DILUPBiCGStab:  Solving for Uy, Initial residual = 1.25975e-07, Final residual = 1.25975e-07, No Iterations 0
DILUPBiCGStab:  Solving for T, Initial residual = 0.319963, Final residual = 7.14965e-07, No Iterations 3
DICPCG:  Solving for p_rgh, Initial residual = 7.32142e-06, Final residual = 9.54663e-08, No Iterations 9
time step continuity errors : sum local = 1.75079e-08, global = -2.98112e-09, cumulative = 0.0454409
DILUPBiCGStab:  Solving for epsilon, Initial residual = 1.12957e-06, Final residual = 1.02787e-07, No Iterations 1
DILUPBiCGStab:  Solving for k, Initial residual = 2.24847e-06, Final residual = 8.11233e-07, No Iterations 1
ExecutionTime = 66.93 s  ClockTime = 68 s

Time = 3593

DILUPBiCGStab:  Solving for Ux, Initial residual = 5.31871e-08, Final residual = 5.31871e-08, No Iterations 0
DILUPBiCGStab:  Solving for Uy, Initial residual = 1.26026e-07, Final residual = 1.26026e-07, No Iterations 0
DILUPBiCGStab:  Solving for T, Initial residual = 0.333079, Final residual = 6.22204e-07, No Iterations 3
DICPCG:  Solving for p_rgh, Initial residual = 5.82846e-06, Final residual = 9.52426e-08, No Iterations 11
time step continuity errors : sum local = 1.74669e-08, global = -2.80825e-09, cumulative = 0.0454409
DILUPBiCGStab:  Solving for epsilon, Initial residual = 5.81505e-07, Final residual = 5.81505e-07, No Iterations 0
DILUPBiCGStab:  Solving for k, Initial residual = 2.25701e-06, Final residual = 8.34434e-07, No Iterations 1
ExecutionTime = 66.95 s  ClockTime = 68 s

Time = 3594

DILUPBiCGStab:  Solving for Ux, Initial residual = 5.31576e-08, Final residual = 5.31576e-08, No Iterations 0
DILUPBiCGStab:  Solving for Uy, Initial residual = 1.15269e-07, Final residual = 1.15269e-07, No Iterations 0
DILUPBiCGStab:  Solving for T, Initial residual = 0.333525, Final residual = 8.50924e-07, No Iterations 3
DICPCG:  Solving for p_rgh, Initial residual = 5.54718e-06, Final residual = 9.53522e-08, No Iterations 10
time step continuity errors : sum local = 1.7487e-08, global = -2.27677e-09, cumulative = 0.0454409
DILUPBiCGStab:  Solving for epsilon, Initial residual = 7.39893e-07, Final residual = 7.39893e-07, No Iterations 0
DILUPBiCGStab:  Solving for k, Initial residual = 2.33417e-06, Final residual = 8.43974e-07, No Iterations 1
ExecutionTime = 66.96 s  ClockTime = 68 s

Time = 3595

DILUPBiCGStab:  Solving for Ux, Initial residual = 5.88535e-08, Final residual = 5.88535e-08, No Iterations 0
DILUPBiCGStab:  Solving for Uy, Initial residual = 1.12557e-07, Final residual = 1.12557e-07, No Iterations 0
DILUPBiCGStab:  Solving for T, Initial residual = 0.330537, Final residual = 2.25313e-07, No Iterations 4
DICPCG:  Solving for p_rgh, Initial residual = 5.64503e-06, Final residual = 9.53582e-08, No Iterations 13
time step continuity errors : sum local = 1.74881e-08, global = -8.72939e-10, cumulative = 0.0454409
DILUPBiCGStab:  Solving for epsilon, Initial residual = 1.00264e-06, Final residual = 1.07872e-07, No Iterations 1
DILUPBiCGStab:  Solving for k, Initial residual = 2.16578e-06, Final residual = 7.74253e-07, No Iterations 1
ExecutionTime = 66.98 s  ClockTime = 68 s

Time = 3596

DILUPBiCGStab:  Solving for Ux, Initial residual = 5.11142e-08, Final residual = 5.11142e-08, No Iterations 0
DILUPBiCGStab:  Solving for Uy, Initial residual = 1.16134e-07, Final residual = 1.16134e-07, No Iterations 0
DILUPBiCGStab:  Solving for T, Initial residual = 0.338635, Final residual = 6.06689e-07, No Iterations 3
DICPCG:  Solving for p_rgh, Initial residual = 5.25863e-06, Final residual = 9.69618e-08, No Iterations 9
time step continuity errors : sum local = 1.77822e-08, global = 2.00707e-10, cumulative = 0.0454409
DILUPBiCGStab:  Solving for epsilon, Initial residual = 5.81749e-07, Final residual = 5.81749e-07, No Iterations 0
DILUPBiCGStab:  Solving for k, Initial residual = 2.17457e-06, Final residual = 7.98018e-07, No Iterations 1
ExecutionTime = 66.99 s  ClockTime = 68 s

Time = 3597

DILUPBiCGStab:  Solving for Ux, Initial residual = 5.40635e-08, Final residual = 5.40635e-08, No Iterations 0
DILUPBiCGStab:  Solving for Uy, Initial residual = 1.1652e-07, Final residual = 1.1652e-07, No Iterations 0
DILUPBiCGStab:  Solving for T, Initial residual = 0.334722, Final residual = 3.74356e-07, No Iterations 4
DICPCG:  Solving for p_rgh, Initial residual = 5.77371e-06, Final residual = 9.93423e-08, No Iterations 15
time step continuity errors : sum local = 1.82187e-08, global = 1.3184e-09, cumulative = 0.0454409
DILUPBiCGStab:  Solving for epsilon, Initial residual = 8.11442e-07, Final residual = 8.11442e-07, No Iterations 0
DILUPBiCGStab:  Solving for k, Initial residual = 2.26302e-06, Final residual = 8.25967e-07, No Iterations 1
ExecutionTime = 67.01 s  ClockTime = 68 s

Time = 3598

DILUPBiCGStab:  Solving for Ux, Initial residual = 6.30074e-08, Final residual = 6.30074e-08, No Iterations 0
DILUPBiCGStab:  Solving for Uy, Initial residual = 1.22151e-07, Final residual = 1.22151e-07, No Iterations 0
DILUPBiCGStab:  Solving for T, Initial residual = 0.33692, Final residual = 6.08235e-07, No Iterations 3
DICPCG:  Solving for p_rgh, Initial residual = 6.8973e-06, Final residual = 9.2763e-08, No Iterations 9
time step continuity errors : sum local = 1.7012e-08, global = 2.35313e-09, cumulative = 0.0454409
DILUPBiCGStab:  Solving for epsilon, Initial residual = 1.08751e-06, Final residual = 8.52117e-08, No Iterations 1
DILUPBiCGStab:  Solving for k, Initial residual = 2.26488e-06, Final residual = 8.14483e-07, No Iterations 1
ExecutionTime = 67.03 s  ClockTime = 68 s

Time = 3599

DILUPBiCGStab:  Solving for Ux, Initial residual = 5.59281e-08, Final residual = 5.59281e-08, No Iterations 0
DILUPBiCGStab:  Solving for Uy, Initial residual = 1.29949e-07, Final residual = 1.29949e-07, No Iterations 0
DILUPBiCGStab:  Solving for T, Initial residual = 0.342659, Final residual = 1.83349e-07, No Iterations 4
DICPCG:  Solving for p_rgh, Initial residual = 5.51207e-06, Final residual = 9.895e-08, No Iterations 13
time step continuity errors : sum local = 1.81467e-08, global = 2.18422e-09, cumulative = 0.0454409
DILUPBiCGStab:  Solving for epsilon, Initial residual = 5.90712e-07, Final residual = 5.90712e-07, No Iterations 0
DILUPBiCGStab:  Solving for k, Initial residual = 2.26625e-06, Final residual = 8.46233e-07, No Iterations 1
ExecutionTime = 67.04 s  ClockTime = 68 s

Time = 3600

DILUPBiCGStab:  Solving for Ux, Initial residual = 5.7687e-08, Final residual = 5.7687e-08, No Iterations 0
DILUPBiCGStab:  Solving for Uy, Initial residual = 1.24398e-07, Final residual = 1.24398e-07, No Iterations 0
DILUPBiCGStab:  Solving for T, Initial residual = 0.348996, Final residual = 5.656e-07, No Iterations 3
DICPCG:  Solving for p_rgh, Initial residual = 5.85147e-06, Final residual = 9.63168e-08, No Iterations 8
time step continuity errors : sum local = 1.76637e-08, global = 2.39074e-09, cumulative = 0.0454409
DILUPBiCGStab:  Solving for epsilon, Initial residual = 7.43234e-07, Final residual = 7.43234e-07, No Iterations 0
DILUPBiCGStab:  Solving for k, Initial residual = 2.32774e-06, Final residual = 8.56506e-07, No Iterations 1
ExecutionTime = 67.1 s  ClockTime = 68 s

forces forces write:
    sum of forces:
        pressure : (0.222955 1.02829 1.54964e-19)
        viscous  : (0.0940209 0.000226103 3.54193e-23)
        porous   : (0 0 0)
    sum of moments:
        pressure : (-0.539854 0.117051 0.547713)
        viscous  : (-0.000118704 0.049361 -0.00185206)
        porous   : (0 0 0)

forceCoeffs forceCoeffs write:
    Cm    = 0.00603763
    Cd    = 0.00575013
    Cl    = 0.0186579
    Cl(f) = 0.0153666
    Cl(r) = 0.00329133

End

