/*---------------------------------------------------------------------------*\
| =========                 |                                                 |
| \\      /  F ield         | OpenFOAM: The Open Source CFD Toolbox           |
|  \\    /   O peration     | Version:  5.x                                   |
|   \\  /    A nd           | Web:      www.OpenFOAM.org                      |
|    \\/     M anipulation  |                                                 |
\*---------------------------------------------------------------------------*/
Build  : 5.x-197d9d3bf20a
Exec   : massBoussinesqSimpleFoam
Date   : Oct 07 2020
Time   : 12:50:38
Host   : "ubuntu"
PID    : 87302
I/O    : uncollated
Case   : /home/sid/OpenFOAM/OpenFOAM-5.0/applications/solvers/testSolvers/massBoussinesqSimpleFoam/tutorial/64A215/266K
nProcs : 1
sigFpe : Enabling floating point exception trapping (FOAM_SIGFPE).
fileModificationChecking : Monitoring run-time modified files using timeStampMaster (fileModificationSkew 10)
allowSystemOperations : Allowing user-supplied system call operations

// * * * * * * * * * * * * * * * * * * * * * * * * * * * * * * * * * * * * * //
Create time

Create mesh for time = 0


SIMPLE: convergence criteria
    field p_rgh	 tolerance 1e-05
    field U	 tolerance 1e-05
    field T	 tolerance 1e-05
    field "(k|epsilon|omega)"	 tolerance 1e-05

Reading thermophysical properties

Reading field T

--> FOAM Warning : 
    From function groovyBCFvPatchField<Type>::groovyBCFvPatchField(const fvPatch& p,const DimensionedField<Type, volMesh>& iF,const dictionary& dict)
    in file groovyBCFvPatchField.C at line 136
    No value defined for T on wing therefore using the internal field next to the patch
Reading field p_rgh

Reading field U

--> FOAM Warning : 
    From function groovyBCFvPatchField<Type>::groovyBCFvPatchField(const fvPatch& p,const DimensionedField<Type, volMesh>& iF,const dictionary& dict)
    in file groovyBCFvPatchField.C at line 136
    No value defined for Y on wing therefore using the internal field next to the patch
Reading/calculating face flux field phi

Selecting incompressible transport model Newtonian
Creating turbulence model

Selecting turbulence model type laminar
Selecting laminar stress model Stokes
Reading field alphat


Reading g

Reading hRef
Calculating field g.h

No MRF models present

Radiation model not active: radiationProperties not found
Selecting radiationModel none
No finite volume options present


Starting time loop

forces forces:
    Not including porosity effects
forces forceCoeffs:
    Not including porosity effects
forceCoeffs forceCoeffs:
    Not including porosity effects
Time = 1

swak4Foam: Allocating new repository for sampledGlobalVariables
DILUPBiCGStab:  Solving for Y, Initial residual = 1, Final residual = 9.23345e-08, No Iterations 42
DILUPBiCGStab:  Solving for Y, Initial residual = 0.0744276, Final residual = 5.82196e-07, No Iterations 53
DILUPBiCGStab:  Solving for Y, Initial residual = 0.0719698, Final residual = 4.446e-07, No Iterations 53
DILUPBiCGStab:  Solving for Y, Initial residual = 0.0744179, Final residual = 4.71529e-07, No Iterations 53
DILUPBiCGStab:  Solving for Y, Initial residual = 0.0719062, Final residual = 5.85883e-07, No Iterations 53
DILUPBiCGStab:  Solving for Y, Initial residual = 0.0744179, Final residual = 4.97509e-07, No Iterations 53
DILUPBiCGStab:  Solving for Y, Initial residual = 0.0719062, Final residual = 4.19297e-07, No Iterations 53
DILUPBiCGStab:  Solving for Y, Initial residual = 0.0744179, Final residual = 4.80503e-07, No Iterations 53
DILUPBiCGStab:  Solving for Y, Initial residual = 0.0719062, Final residual = 5.89119e-07, No Iterations 53
DILUPBiCGStab:  Solving for Y, Initial residual = 0.0744179, Final residual = 4.79692e-07, No Iterations 53
DILUPBiCGStab:  Solving for Y, Initial residual = 0.0719062, Final residual = 7.30852e-07, No Iterations 53
DILUPBiCGStab:  Solving for Y, Initial residual = 0.0744181, Final residual = 4.62403e-07, No Iterations 53
DILUPBiCGStab:  Solving for Y, Initial residual = 0.0719062, Final residual = 5.26368e-07, No Iterations 53
DILUPBiCGStab:  Solving for Y, Initial residual = 0.0744179, Final residual = 8.9966e-07, No Iterations 52
DILUPBiCGStab:  Solving for Y, Initial residual = 0.0719065, Final residual = 4.45454e-07, No Iterations 53
DILUPBiCGStab:  Solving for Y, Initial residual = 0.0744179, Final residual = 4.63264e-07, No Iterations 53
DILUPBiCGStab:  Solving for Y, Initial residual = 0.0719062, Final residual = 6.06041e-07, No Iterations 53
DILUPBiCGStab:  Solving for Y, Initial residual = 0.0744178, Final residual = 5.80823e-07, No Iterations 53
DILUPBiCGStab:  Solving for Y, Initial residual = 0.0719062, Final residual = 5.46905e-07, No Iterations 53
DILUPBiCGStab:  Solving for Y, Initial residual = 0.0744179, Final residual = 6.11952e-07, No Iterations 53
DILUPBiCGStab:  Solving for Y, Initial residual = 0.0719061, Final residual = 5.38362e-07, No Iterations 53
DILUPBiCGStab:  Solving for Y, Initial residual = 0.0744179, Final residual = 9.14177e-07, No Iterations 52
DILUPBiCGStab:  Solving for Y, Initial residual = 0.0719065, Final residual = 5.63312e-07, No Iterations 53
DILUPBiCGStab:  Solving for Y, Initial residual = 0.0744179, Final residual = 7.15082e-07, No Iterations 53
DILUPBiCGStab:  Solving for Y, Initial residual = 0.0719062, Final residual = 4.05033e-07, No Iterations 53
DILUPBiCGStab:  Solving for Y, Initial residual = 0.0744179, Final residual = 5.2725e-07, No Iterations 53
DILUPBiCGStab:  Solving for Y, Initial residual = 0.0719063, Final residual = 4.68695e-07, No Iterations 53
DILUPBiCGStab:  Solving for Y, Initial residual = 0.0744179, Final residual = 4.90277e-07, No Iterations 53
DILUPBiCGStab:  Solving for Y, Initial residual = 0.0719062, Final residual = 5.13129e-07, No Iterations 53
DILUPBiCGStab:  Solving for Y, Initial residual = 0.0744179, Final residual = 7.40215e-07, No Iterations 53
DILUPBiCGStab:  Solving for Y, Initial residual = 0.0719063, Final residual = 5.5335e-07, No Iterations 53
DILUPBiCGStab:  Solving for Y, Initial residual = 0.0744179, Final residual = 4.28203e-07, No Iterations 53
DILUPBiCGStab:  Solving for Y, Initial residual = 0.0719062, Final residual = 4.81596e-07, No Iterations 53
DILUPBiCGStab:  Solving for Y, Initial residual = 0.0744179, Final residual = 4.68024e-07, No Iterations 53
DILUPBiCGStab:  Solving for Y, Initial residual = 0.0719062, Final residual = 5.79116e-07, No Iterations 53
DILUPBiCGStab:  Solving for Y, Initial residual = 0.0744179, Final residual = 5.64529e-07, No Iterations 53
DILUPBiCGStab:  Solving for Y, Initial residual = 0.0719062, Final residual = 4.39356e-07, No Iterations 53
DILUPBiCGStab:  Solving for Y, Initial residual = 0.0744179, Final residual = 5.06559e-07, No Iterations 53
DILUPBiCGStab:  Solving for Y, Initial residual = 0.0719062, Final residual = 5.36219e-07, No Iterations 53
DILUPBiCGStab:  Solving for Y, Initial residual = 0.0744179, Final residual = 8.40522e-07, No Iterations 52
DILUPBiCGStab:  Solving for Ux, Initial residual = 1, Final residual = 6.83439e-07, No Iterations 2
DILUPBiCGStab:  Solving for Uy, Initial residual = 0.999915, Final residual = 6.81173e-08, No Iterations 3
DILUPBiCGStab:  Solving for T, Initial residual = 1, Final residual = 1.40872e-07, No Iterations 4
DICPCG:  Solving for p_rgh, Initial residual = 1, Final residual = 0.00992342, No Iterations 74
time step continuity errors : sum local = 0.000109866, global = -9.41308e-06, cumulative = -9.41308e-06
ExecutionTime = 0.61 s  ClockTime = 0 s

Time = 2

DILUPBiCGStab:  Solving for Y, Initial residual = 0.132063, Final residual = 3.99065e-07, No Iterations 58
DILUPBiCGStab:  Solving for Y, Initial residual = 0.0834229, Final residual = 1.72797e-07, No Iterations 67
DILUPBiCGStab:  Solving for Y, Initial residual = 0.0798625, Final residual = 1.57501e-07, No Iterations 67
DILUPBiCGStab:  Solving for Y, Initial residual = 0.0834352, Final residual = 7.48196e-07, No Iterations 66
DILUPBiCGStab:  Solving for Y, Initial residual = 0.0796768, Final residual = 1.20973e-07, No Iterations 66
DILUPBiCGStab:  Solving for Y, Initial residual = 0.0834349, Final residual = 6.82459e-07, No Iterations 66
DILUPBiCGStab:  Solving for Y, Initial residual = 0.0796769, Final residual = 4.71798e-08, No Iterations 67
DILUPBiCGStab:  Solving for Y, Initial residual = 0.083435, Final residual = 6.80453e-07, No Iterations 66
DILUPBiCGStab:  Solving for Y, Initial residual = 0.0796768, Final residual = 4.48167e-07, No Iterations 66
DILUPBiCGStab:  Solving for Y, Initial residual = 0.0834356, Final residual = 2.94342e-07, No Iterations 67
DILUPBiCGStab:  Solving for Y, Initial residual = 0.0796769, Final residual = 7.58272e-07, No Iterations 66
DILUPBiCGStab:  Solving for Y, Initial residual = 0.0834359, Final residual = 8.37432e-07, No Iterations 66
DILUPBiCGStab:  Solving for Y, Initial residual = 0.0796768, Final residual = 4.12941e-07, No Iterations 66
DILUPBiCGStab:  Solving for Y, Initial residual = 0.0834355, Final residual = 7.42871e-07, No Iterations 66
DILUPBiCGStab:  Solving for Y, Initial residual = 0.0796768, Final residual = 6.82605e-07, No Iterations 65
DILUPBiCGStab:  Solving for Y, Initial residual = 0.0834358, Final residual = 2.48094e-07, No Iterations 66
DILUPBiCGStab:  Solving for Y, Initial residual = 0.0796769, Final residual = 4.69616e-08, No Iterations 67
DILUPBiCGStab:  Solving for Y, Initial residual = 0.0834351, Final residual = 4.09493e-08, No Iterations 67
DILUPBiCGStab:  Solving for Y, Initial residual = 0.0796769, Final residual = 8.19047e-07, No Iterations 66
DILUPBiCGStab:  Solving for Y, Initial residual = 0.083434, Final residual = 1.1125e-07, No Iterations 67
DILUPBiCGStab:  Solving for Y, Initial residual = 0.0796768, Final residual = 7.98131e-07, No Iterations 66
DILUPBiCGStab:  Solving for Y, Initial residual = 0.0834359, Final residual = 9.45394e-08, No Iterations 66
DILUPBiCGStab:  Solving for Y, Initial residual = 0.0796769, Final residual = 4.02234e-07, No Iterations 66
DILUPBiCGStab:  Solving for Y, Initial residual = 0.0834355, Final residual = 7.24548e-07, No Iterations 66
DILUPBiCGStab:  Solving for Y, Initial residual = 0.0796769, Final residual = 4.45757e-07, No Iterations 66
DILUPBiCGStab:  Solving for Y, Initial residual = 0.0834345, Final residual = 2.46123e-08, No Iterations 67
DILUPBiCGStab:  Solving for Y, Initial residual = 0.0796769, Final residual = 1.98408e-08, No Iterations 68
DILUPBiCGStab:  Solving for Y, Initial residual = 0.083435, Final residual = 1.07789e-07, No Iterations 67
DILUPBiCGStab:  Solving for Y, Initial residual = 0.0796768, Final residual = 4.07181e-08, No Iterations 67
DILUPBiCGStab:  Solving for Y, Initial residual = 0.083435, Final residual = 6.90564e-07, No Iterations 66
DILUPBiCGStab:  Solving for Y, Initial residual = 0.0796768, Final residual = 9.63481e-07, No Iterations 66
DILUPBiCGStab:  Solving for Y, Initial residual = 0.0834362, Final residual = 9.92722e-07, No Iterations 65
DILUPBiCGStab:  Solving for Y, Initial residual = 0.079677, Final residual = 3.85322e-07, No Iterations 66
DILUPBiCGStab:  Solving for Y, Initial residual = 0.0834355, Final residual = 1.45969e-07, No Iterations 67
DILUPBiCGStab:  Solving for Y, Initial residual = 0.0796769, Final residual = 7.76762e-08, No Iterations 67
DILUPBiCGStab:  Solving for Y, Initial residual = 0.0834349, Final residual = 1.27644e-07, No Iterations 67
DILUPBiCGStab:  Solving for Y, Initial residual = 0.0796768, Final residual = 1.47068e-07, No Iterations 66
DILUPBiCGStab:  Solving for Y, Initial residual = 0.0834348, Final residual = 5.64439e-08, No Iterations 67
DILUPBiCGStab:  Solving for Y, Initial residual = 0.0796769, Final residual = 8.67031e-07, No Iterations 66
DILUPBiCGStab:  Solving for Y, Initial residual = 0.083434, Final residual = 5.95043e-08, No Iterations 67
DILUPBiCGStab:  Solving for Ux, Initial residual = 0.397177, Final residual = 1.60812e-07, No Iterations 3
DILUPBiCGStab:  Solving for Uy, Initial residual = 0.397748, Final residual = 4.1241e-07, No Iterations 3
DILUPBiCGStab:  Solving for T, Initial residual = 0.0310805, Final residual = 9.69415e-08, No Iterations 3
DICPCG:  Solving for p_rgh, Initial residual = 0.539897, Final residual = 0.00516381, No Iterations 58
time step continuity errors : sum local = 0.000362381, global = 8.94045e-06, cumulative = -4.72629e-07
ExecutionTime = 1.2 s  ClockTime = 1 s

Time = 3

DILUPBiCGStab:  Solving for Y, Initial residual = 0.0871761, Final residual = 5.09818e-07, No Iterations 64
DILUPBiCGStab:  Solving for Y, Initial residual = 0.0844065, Final residual = 5.09984e-07, No Iterations 66
DILUPBiCGStab:  Solving for Y, Initial residual = 0.0805568, Final residual = 1.41197e-07, No Iterations 67
DILUPBiCGStab:  Solving for Y, Initial residual = 0.0844061, Final residual = 9.20976e-07, No Iterations 66
DILUPBiCGStab:  Solving for Y, Initial residual = 0.0805519, Final residual = 2.04015e-08, No Iterations 68
DILUPBiCGStab:  Solving for Y, Initial residual = 0.0844063, Final residual = 1.72208e-07, No Iterations 66
DILUPBiCGStab:  Solving for Y, Initial residual = 0.080552, Final residual = 8.52084e-08, No Iterations 67
DILUPBiCGStab:  Solving for Y, Initial residual = 0.0844064, Final residual = 8.11005e-08, No Iterations 67
DILUPBiCGStab:  Solving for Y, Initial residual = 0.080552, Final residual = 7.03589e-08, No Iterations 67
DILUPBiCGStab:  Solving for Y, Initial residual = 0.0844062, Final residual = 4.47529e-07, No Iterations 66
DILUPBiCGStab:  Solving for Y, Initial residual = 0.0805519, Final residual = 7.83967e-07, No Iterations 66
DILUPBiCGStab:  Solving for Y, Initial residual = 0.0844072, Final residual = 1.25906e-07, No Iterations 67
DILUPBiCGStab:  Solving for Y, Initial residual = 0.080552, Final residual = 1.10902e-07, No Iterations 67
DILUPBiCGStab:  Solving for Y, Initial residual = 0.0844064, Final residual = 7.76726e-07, No Iterations 66
DILUPBiCGStab:  Solving for Y, Initial residual = 0.080552, Final residual = 8.01699e-07, No Iterations 66
DILUPBiCGStab:  Solving for Y, Initial residual = 0.0844073, Final residual = 8.88964e-07, No Iterations 66
DILUPBiCGStab:  Solving for Y, Initial residual = 0.0805521, Final residual = 2.40141e-08, No Iterations 67
DILUPBiCGStab:  Solving for Y, Initial residual = 0.0844063, Final residual = 7.99829e-07, No Iterations 66
DILUPBiCGStab:  Solving for Y, Initial residual = 0.080552, Final residual = 8.86133e-08, No Iterations 66
DILUPBiCGStab:  Solving for Y, Initial residual = 0.0844062, Final residual = 9.24928e-07, No Iterations 65
DILUPBiCGStab:  Solving for Y, Initial residual = 0.0805521, Final residual = 6.11324e-08, No Iterations 67
DILUPBiCGStab:  Solving for Y, Initial residual = 0.0844062, Final residual = 1.19649e-07, No Iterations 66
DILUPBiCGStab:  Solving for Y, Initial residual = 0.080552, Final residual = 1.14157e-07, No Iterations 66
DILUPBiCGStab:  Solving for Y, Initial residual = 0.0844061, Final residual = 8.26562e-08, No Iterations 67
DILUPBiCGStab:  Solving for Y, Initial residual = 0.080552, Final residual = 7.25121e-07, No Iterations 66
DILUPBiCGStab:  Solving for Y, Initial residual = 0.0844054, Final residual = 6.91603e-08, No Iterations 66
DILUPBiCGStab:  Solving for Y, Initial residual = 0.080552, Final residual = 9.68044e-07, No Iterations 65
DILUPBiCGStab:  Solving for Y, Initial residual = 0.0844075, Final residual = 2.82067e-08, No Iterations 67
DILUPBiCGStab:  Solving for Y, Initial residual = 0.080552, Final residual = 1.23596e-07, No Iterations 67
DILUPBiCGStab:  Solving for Y, Initial residual = 0.0844061, Final residual = 5.32423e-07, No Iterations 66
DILUPBiCGStab:  Solving for Y, Initial residual = 0.0805519, Final residual = 5.72836e-07, No Iterations 66
DILUPBiCGStab:  Solving for Y, Initial residual = 0.0844055, Final residual = 8.25383e-07, No Iterations 66
DILUPBiCGStab:  Solving for Y, Initial residual = 0.0805519, Final residual = 7.5039e-07, No Iterations 66
DILUPBiCGStab:  Solving for Y, Initial residual = 0.0844053, Final residual = 1.88781e-07, No Iterations 66
DILUPBiCGStab:  Solving for Y, Initial residual = 0.0805519, Final residual = 7.19711e-08, No Iterations 67
DILUPBiCGStab:  Solving for Y, Initial residual = 0.0844062, Final residual = 5.72193e-08, No Iterations 67
DILUPBiCGStab:  Solving for Y, Initial residual = 0.080552, Final residual = 6.97496e-07, No Iterations 66
DILUPBiCGStab:  Solving for Y, Initial residual = 0.0844054, Final residual = 9.81415e-07, No Iterations 65
DILUPBiCGStab:  Solving for Y, Initial residual = 0.080552, Final residual = 7.56587e-08, No Iterations 67
DILUPBiCGStab:  Solving for Y, Initial residual = 0.0844062, Final residual = 1.73479e-07, No Iterations 67
DILUPBiCGStab:  Solving for Ux, Initial residual = 0.0963693, Final residual = 3.16064e-07, No Iterations 2
DILUPBiCGStab:  Solving for Uy, Initial residual = 0.106223, Final residual = 3.16068e-07, No Iterations 2
DILUPBiCGStab:  Solving for T, Initial residual = 0.0152916, Final residual = 6.12758e-07, No Iterations 2
DICPCG:  Solving for p_rgh, Initial residual = 0.228419, Final residual = 0.00222291, No Iterations 60
time step continuity errors : sum local = 0.000171, global = 6.27786e-06, cumulative = 5.80523e-06
ExecutionTime = 1.79 s  ClockTime = 1 s

Time = 4

DILUPBiCGStab:  Solving for Y, Initial residual = 0.0839647, Final residual = 4.51369e-07, No Iterations 65
DILUPBiCGStab:  Solving for Y, Initial residual = 0.0843688, Final residual = 8.89316e-07, No Iterations 65
DILUPBiCGStab:  Solving for Y, Initial residual = 0.0805208, Final residual = 5.32179e-07, No Iterations 67
DILUPBiCGStab:  Solving for Y, Initial residual = 0.084369, Final residual = 2.43484e-07, No Iterations 65
DILUPBiCGStab:  Solving for Y, Initial residual = 0.0805194, Final residual = 5.38104e-07, No Iterations 66
DILUPBiCGStab:  Solving for Y, Initial residual = 0.0843691, Final residual = 6.08488e-07, No Iterations 66
DILUPBiCGStab:  Solving for Y, Initial residual = 0.0805193, Final residual = 3.83024e-07, No Iterations 66
DILUPBiCGStab:  Solving for Y, Initial residual = 0.0843689, Final residual = 5.4713e-07, No Iterations 66
DILUPBiCGStab:  Solving for Y, Initial residual = 0.0805194, Final residual = 5.80073e-07, No Iterations 66
DILUPBiCGStab:  Solving for Y, Initial residual = 0.0843691, Final residual = 2.18044e-07, No Iterations 66
DILUPBiCGStab:  Solving for Y, Initial residual = 0.0805193, Final residual = 9.05847e-07, No Iterations 65
DILUPBiCGStab:  Solving for Y, Initial residual = 0.0843695, Final residual = 1.4439e-07, No Iterations 66
DILUPBiCGStab:  Solving for Y, Initial residual = 0.0805193, Final residual = 8.6757e-07, No Iterations 66
DILUPBiCGStab:  Solving for Y, Initial residual = 0.0843673, Final residual = 6.08108e-07, No Iterations 65
DILUPBiCGStab:  Solving for Y, Initial residual = 0.0805193, Final residual = 4.48111e-08, No Iterations 67
DILUPBiCGStab:  Solving for Y, Initial residual = 0.0843684, Final residual = 8.29625e-07, No Iterations 66
DILUPBiCGStab:  Solving for Y, Initial residual = 0.0805194, Final residual = 2.2563e-07, No Iterations 66
DILUPBiCGStab:  Solving for Y, Initial residual = 0.0843681, Final residual = 1.89577e-07, No Iterations 67
DILUPBiCGStab:  Solving for Y, Initial residual = 0.0805193, Final residual = 3.72179e-08, No Iterations 67
DILUPBiCGStab:  Solving for Y, Initial residual = 0.0843684, Final residual = 7.95368e-08, No Iterations 66
DILUPBiCGStab:  Solving for Y, Initial residual = 0.0805193, Final residual = 1.71269e-07, No Iterations 67
DILUPBiCGStab:  Solving for Y, Initial residual = 0.0843682, Final residual = 4.04244e-07, No Iterations 66
DILUPBiCGStab:  Solving for Y, Initial residual = 0.0805193, Final residual = 2.93038e-08, No Iterations 67
DILUPBiCGStab:  Solving for Y, Initial residual = 0.0843684, Final residual = 6.40758e-07, No Iterations 66
DILUPBiCGStab:  Solving for Y, Initial residual = 0.0805194, Final residual = 5.65821e-07, No Iterations 66
DILUPBiCGStab:  Solving for Y, Initial residual = 0.0843691, Final residual = 5.08725e-07, No Iterations 65
DILUPBiCGStab:  Solving for Y, Initial residual = 0.0805194, Final residual = 5.27362e-08, No Iterations 66
DILUPBiCGStab:  Solving for Y, Initial residual = 0.0843684, Final residual = 3.48061e-08, No Iterations 67
DILUPBiCGStab:  Solving for Y, Initial residual = 0.0805193, Final residual = 3.49485e-08, No Iterations 67
DILUPBiCGStab:  Solving for Y, Initial residual = 0.0843684, Final residual = 7.70943e-08, No Iterations 67
DILUPBiCGStab:  Solving for Y, Initial residual = 0.0805193, Final residual = 2.34548e-07, No Iterations 66
DILUPBiCGStab:  Solving for Y, Initial residual = 0.0843681, Final residual = 3.96689e-07, No Iterations 66
DILUPBiCGStab:  Solving for Y, Initial residual = 0.0805193, Final residual = 2.75748e-08, No Iterations 67
DILUPBiCGStab:  Solving for Y, Initial residual = 0.0843684, Final residual = 2.18087e-07, No Iterations 67
DILUPBiCGStab:  Solving for Y, Initial residual = 0.0805193, Final residual = 4.56264e-07, No Iterations 66
DILUPBiCGStab:  Solving for Y, Initial residual = 0.0843678, Final residual = 7.58814e-07, No Iterations 66
DILUPBiCGStab:  Solving for Y, Initial residual = 0.0805193, Final residual = 1.35527e-07, No Iterations 67
DILUPBiCGStab:  Solving for Y, Initial residual = 0.0843686, Final residual = 8.79408e-08, No Iterations 66
DILUPBiCGStab:  Solving for Y, Initial residual = 0.0805193, Final residual = 6.00036e-07, No Iterations 66
DILUPBiCGStab:  Solving for Y, Initial residual = 0.0843691, Final residual = 8.91262e-07, No Iterations 65
DILUPBiCGStab:  Solving for Ux, Initial residual = 0.0830867, Final residual = 2.25063e-07, No Iterations 2
DILUPBiCGStab:  Solving for Uy, Initial residual = 0.0903223, Final residual = 3.47644e-07, No Iterations 2
DILUPBiCGStab:  Solving for T, Initial residual = 0.0100574, Final residual = 4.07037e-07, No Iterations 2
DICPCG:  Solving for p_rgh, Initial residual = 0.32518, Final residual = 0.00284643, No Iterations 50
time step continuity errors : sum local = 0.000155239, global = -4.48688e-06, cumulative = 1.31835e-06
ExecutionTime = 2.38 s  ClockTime = 2 s

Time = 5

DILUPBiCGStab:  Solving for Y, Initial residual = 0.0824687, Final residual = 6.21931e-07, No Iterations 66
DILUPBiCGStab:  Solving for Y, Initial residual = 0.0847024, Final residual = 1.33005e-07, No Iterations 67
DILUPBiCGStab:  Solving for Y, Initial residual = 0.0808229, Final residual = 7.69482e-07, No Iterations 64
DILUPBiCGStab:  Solving for Y, Initial residual = 0.0847022, Final residual = 7.03768e-07, No Iterations 66
DILUPBiCGStab:  Solving for Y, Initial residual = 0.080823, Final residual = 7.04328e-08, No Iterations 67
DILUPBiCGStab:  Solving for Y, Initial residual = 0.084702, Final residual = 1.2312e-07, No Iterations 67
DILUPBiCGStab:  Solving for Y, Initial residual = 0.0808229, Final residual = 1.75601e-07, No Iterations 67
DILUPBiCGStab:  Solving for Y, Initial residual = 0.0847021, Final residual = 9.74115e-07, No Iterations 66
DILUPBiCGStab:  Solving for Y, Initial residual = 0.0808228, Final residual = 4.03762e-08, No Iterations 67
DILUPBiCGStab:  Solving for Y, Initial residual = 0.0847019, Final residual = 3.92514e-07, No Iterations 66
DILUPBiCGStab:  Solving for Y, Initial residual = 0.080823, Final residual = 8.79525e-07, No Iterations 66
DILUPBiCGStab:  Solving for Y, Initial residual = 0.084703, Final residual = 4.78296e-07, No Iterations 66
DILUPBiCGStab:  Solving for Y, Initial residual = 0.0808229, Final residual = 9.25184e-07, No Iterations 66
DILUPBiCGStab:  Solving for Y, Initial residual = 0.0847007, Final residual = 7.74609e-07, No Iterations 66
DILUPBiCGStab:  Solving for Y, Initial residual = 0.0808228, Final residual = 5.55784e-07, No Iterations 66
DILUPBiCGStab:  Solving for Y, Initial residual = 0.0847012, Final residual = 3.91954e-07, No Iterations 67
DILUPBiCGStab:  Solving for Y, Initial residual = 0.080823, Final residual = 2.45141e-07, No Iterations 67
DILUPBiCGStab:  Solving for Y, Initial residual = 0.0847016, Final residual = 1.77775e-07, No Iterations 66
DILUPBiCGStab:  Solving for Y, Initial residual = 0.0808229, Final residual = 6.4341e-08, No Iterations 67
DILUPBiCGStab:  Solving for Y, Initial residual = 0.0847019, Final residual = 3.29895e-07, No Iterations 66
DILUPBiCGStab:  Solving for Y, Initial residual = 0.0808229, Final residual = 1.27202e-07, No Iterations 67
DILUPBiCGStab:  Solving for Y, Initial residual = 0.0847021, Final residual = 1.24001e-07, No Iterations 67
DILUPBiCGStab:  Solving for Y, Initial residual = 0.0808229, Final residual = 6.58982e-07, No Iterations 66
DILUPBiCGStab:  Solving for Y, Initial residual = 0.0847011, Final residual = 7.61727e-08, No Iterations 67
DILUPBiCGStab:  Solving for Y, Initial residual = 0.0808229, Final residual = 7.75573e-07, No Iterations 66
DILUPBiCGStab:  Solving for Y, Initial residual = 0.0847009, Final residual = 3.86611e-07, No Iterations 65
DILUPBiCGStab:  Solving for Y, Initial residual = 0.080823, Final residual = 2.49281e-07, No Iterations 67
DILUPBiCGStab:  Solving for Y, Initial residual = 0.0847022, Final residual = 6.06368e-07, No Iterations 65
DILUPBiCGStab:  Solving for Y, Initial residual = 0.080823, Final residual = 4.25005e-07, No Iterations 65
DILUPBiCGStab:  Solving for Y, Initial residual = 0.0847024, Final residual = 1.7449e-07, No Iterations 67
DILUPBiCGStab:  Solving for Y, Initial residual = 0.080823, Final residual = 4.02793e-07, No Iterations 67
DILUPBiCGStab:  Solving for Y, Initial residual = 0.0847024, Final residual = 6.13375e-07, No Iterations 66
DILUPBiCGStab:  Solving for Y, Initial residual = 0.0808229, Final residual = 7.92022e-07, No Iterations 66
DILUPBiCGStab:  Solving for Y, Initial residual = 0.0847009, Final residual = 2.85363e-07, No Iterations 66
DILUPBiCGStab:  Solving for Y, Initial residual = 0.0808229, Final residual = 6.91953e-08, No Iterations 66
DILUPBiCGStab:  Solving for Y, Initial residual = 0.084702, Final residual = 3.89541e-07, No Iterations 65
DILUPBiCGStab:  Solving for Y, Initial residual = 0.080823, Final residual = 5.92638e-08, No Iterations 67
DILUPBiCGStab:  Solving for Y, Initial residual = 0.084702, Final residual = 2.88397e-07, No Iterations 66
DILUPBiCGStab:  Solving for Y, Initial residual = 0.0808229, Final residual = 1.2849e-07, No Iterations 67
DILUPBiCGStab:  Solving for Y, Initial residual = 0.0847021, Final residual = 8.7143e-07, No Iterations 66
DILUPBiCGStab:  Solving for Ux, Initial residual = 0.0698928, Final residual = 2.14129e-07, No Iterations 2
DILUPBiCGStab:  Solving for Uy, Initial residual = 0.0775407, Final residual = 3.18674e-07, No Iterations 2
DILUPBiCGStab:  Solving for T, Initial residual = 0.00742296, Final residual = 2.9959e-07, No Iterations 2
DICPCG:  Solving for p_rgh, Initial residual = 0.355594, Final residual = 0.00295977, No Iterations 58
time step continuity errors : sum local = 9.61642e-05, global = -1.32683e-06, cumulative = -8.48151e-09
ExecutionTime = 2.97 s  ClockTime = 3 s

Time = 6

DILUPBiCGStab:  Solving for Y, Initial residual = 0.0823836, Final residual = 3.86907e-07, No Iterations 65
DILUPBiCGStab:  Solving for Y, Initial residual = 0.0848349, Final residual = 2.04938e-07, No Iterations 66
DILUPBiCGStab:  Solving for Y, Initial residual = 0.080944, Final residual = 2.29213e-07, No Iterations 66
DILUPBiCGStab:  Solving for Y, Initial residual = 0.0848344, Final residual = 2.62012e-07, No Iterations 66
DILUPBiCGStab:  Solving for Y, Initial residual = 0.0809441, Final residual = 8.37214e-07, No Iterations 66
DILUPBiCGStab:  Solving for Y, Initial residual = 0.0848336, Final residual = 4.63246e-07, No Iterations 66
DILUPBiCGStab:  Solving for Y, Initial residual = 0.080944, Final residual = 3.37238e-07, No Iterations 66
DILUPBiCGStab:  Solving for Y, Initial residual = 0.0848342, Final residual = 2.6292e-07, No Iterations 67
DILUPBiCGStab:  Solving for Y, Initial residual = 0.0809441, Final residual = 3.25914e-08, No Iterations 67
DILUPBiCGStab:  Solving for Y, Initial residual = 0.0848346, Final residual = 6.21605e-08, No Iterations 66
DILUPBiCGStab:  Solving for Y, Initial residual = 0.0809441, Final residual = 3.37034e-08, No Iterations 67
DILUPBiCGStab:  Solving for Y, Initial residual = 0.0848346, Final residual = 1.00542e-07, No Iterations 66
DILUPBiCGStab:  Solving for Y, Initial residual = 0.0809441, Final residual = 4.21802e-08, No Iterations 67
DILUPBiCGStab:  Solving for Y, Initial residual = 0.0848346, Final residual = 3.63665e-08, No Iterations 67
DILUPBiCGStab:  Solving for Y, Initial residual = 0.0809441, Final residual = 3.24631e-08, No Iterations 67
DILUPBiCGStab:  Solving for Y, Initial residual = 0.0848346, Final residual = 6.2069e-07, No Iterations 66
DILUPBiCGStab:  Solving for Y, Initial residual = 0.080944, Final residual = 7.90474e-07, No Iterations 65
DILUPBiCGStab:  Solving for Y, Initial residual = 0.0848356, Final residual = 8.1952e-07, No Iterations 65
DILUPBiCGStab:  Solving for Y, Initial residual = 0.0809441, Final residual = 1.97507e-07, No Iterations 66
DILUPBiCGStab:  Solving for Y, Initial residual = 0.0848344, Final residual = 9.41522e-07, No Iterations 64
DILUPBiCGStab:  Solving for Y, Initial residual = 0.080944, Final residual = 8.64566e-07, No Iterations 64
DILUPBiCGStab:  Solving for Y, Initial residual = 0.0848354, Final residual = 9.9239e-07, No Iterations 65
DILUPBiCGStab:  Solving for Y, Initial residual = 0.0809442, Final residual = 3.23432e-07, No Iterations 66
DILUPBiCGStab:  Solving for Y, Initial residual = 0.0848342, Final residual = 9.95382e-08, No Iterations 67
DILUPBiCGStab:  Solving for Y, Initial residual = 0.0809441, Final residual = 6.62257e-07, No Iterations 65
DILUPBiCGStab:  Solving for Y, Initial residual = 0.0848353, Final residual = 7.06979e-07, No Iterations 66
DILUPBiCGStab:  Solving for Y, Initial residual = 0.080944, Final residual = 6.84056e-07, No Iterations 65
DILUPBiCGStab:  Solving for Y, Initial residual = 0.0848355, Final residual = 5.83687e-07, No Iterations 66
DILUPBiCGStab:  Solving for Y, Initial residual = 0.0809441, Final residual = 5.4465e-07, No Iterations 66
DILUPBiCGStab:  Solving for Y, Initial residual = 0.0848339, Final residual = 5.23912e-07, No Iterations 66
DILUPBiCGStab:  Solving for Y, Initial residual = 0.080944, Final residual = 1.15454e-07, No Iterations 67
DILUPBiCGStab:  Solving for Y, Initial residual = 0.0848348, Final residual = 1.86333e-07, No Iterations 67
DILUPBiCGStab:  Solving for Y, Initial residual = 0.0809441, Final residual = 4.71704e-07, No Iterations 66
DILUPBiCGStab:  Solving for Y, Initial residual = 0.084834, Final residual = 5.58975e-07, No Iterations 66
DILUPBiCGStab:  Solving for Y, Initial residual = 0.080944, Final residual = 6.39098e-07, No Iterations 66
DILUPBiCGStab:  Solving for Y, Initial residual = 0.0848354, Final residual = 9.18443e-07, No Iterations 65
DILUPBiCGStab:  Solving for Y, Initial residual = 0.0809441, Final residual = 5.54024e-08, No Iterations 67
DILUPBiCGStab:  Solving for Y, Initial residual = 0.0848347, Final residual = 2.03578e-07, No Iterations 66
DILUPBiCGStab:  Solving for Y, Initial residual = 0.0809441, Final residual = 4.20815e-08, No Iterations 67
DILUPBiCGStab:  Solving for Y, Initial residual = 0.0848347, Final residual = 8.99263e-07, No Iterations 65
DILUPBiCGStab:  Solving for Ux, Initial residual = 0.0151005, Final residual = 1.92343e-07, No Iterations 2
DILUPBiCGStab:  Solving for Uy, Initial residual = 0.0162748, Final residual = 6.90378e-08, No Iterations 2
DILUPBiCGStab:  Solving for T, Initial residual = 0.00583758, Final residual = 2.34751e-07, No Iterations 2
DICPCG:  Solving for p_rgh, Initial residual = 0.296008, Final residual = 0.00275971, No Iterations 33
time step continuity errors : sum local = 5.46487e-05, global = -9.84696e-06, cumulative = -9.85544e-06
ExecutionTime = 3.55 s  ClockTime = 3 s

Time = 7

DILUPBiCGStab:  Solving for Y, Initial residual = 0.0819332, Final residual = 8.96134e-08, No Iterations 68
DILUPBiCGStab:  Solving for Y, Initial residual = 0.0848644, Final residual = 6.30468e-07, No Iterations 66
DILUPBiCGStab:  Solving for Y, Initial residual = 0.0809719, Final residual = 1.25005e-07, No Iterations 67
DILUPBiCGStab:  Solving for Y, Initial residual = 0.0848647, Final residual = 4.67452e-08, No Iterations 68
DILUPBiCGStab:  Solving for Y, Initial residual = 0.0809718, Final residual = 2.43942e-07, No Iterations 67
DILUPBiCGStab:  Solving for Y, Initial residual = 0.0848648, Final residual = 1.8958e-07, No Iterations 66
DILUPBiCGStab:  Solving for Y, Initial residual = 0.0809718, Final residual = 5.29186e-07, No Iterations 66
DILUPBiCGStab:  Solving for Y, Initial residual = 0.0848639, Final residual = 3.58725e-07, No Iterations 66
DILUPBiCGStab:  Solving for Y, Initial residual = 0.0809718, Final residual = 9.72724e-07, No Iterations 64
DILUPBiCGStab:  Solving for Y, Initial residual = 0.0848653, Final residual = 9.08859e-08, No Iterations 66
DILUPBiCGStab:  Solving for Y, Initial residual = 0.0809718, Final residual = 3.76977e-07, No Iterations 66
DILUPBiCGStab:  Solving for Y, Initial residual = 0.0848641, Final residual = 2.28643e-07, No Iterations 65
DILUPBiCGStab:  Solving for Y, Initial residual = 0.0809718, Final residual = 4.56484e-07, No Iterations 66
DILUPBiCGStab:  Solving for Y, Initial residual = 0.0848651, Final residual = 7.4911e-08, No Iterations 66
DILUPBiCGStab:  Solving for Y, Initial residual = 0.0809718, Final residual = 1.13323e-07, No Iterations 67
DILUPBiCGStab:  Solving for Y, Initial residual = 0.0848646, Final residual = 9.33223e-07, No Iterations 64
DILUPBiCGStab:  Solving for Y, Initial residual = 0.0809718, Final residual = 8.2728e-07, No Iterations 65
DILUPBiCGStab:  Solving for Y, Initial residual = 0.0848655, Final residual = 6.57272e-07, No Iterations 66
DILUPBiCGStab:  Solving for Y, Initial residual = 0.0809718, Final residual = 8.16423e-07, No Iterations 66
DILUPBiCGStab:  Solving for Y, Initial residual = 0.0848655, Final residual = 5.94703e-07, No Iterations 66
DILUPBiCGStab:  Solving for Y, Initial residual = 0.0809718, Final residual = 9.80608e-08, No Iterations 67
DILUPBiCGStab:  Solving for Y, Initial residual = 0.0848646, Final residual = 2.48532e-07, No Iterations 67
DILUPBiCGStab:  Solving for Y, Initial residual = 0.0809718, Final residual = 4.12983e-08, No Iterations 67
DILUPBiCGStab:  Solving for Y, Initial residual = 0.0848645, Final residual = 3.30398e-08, No Iterations 67
DILUPBiCGStab:  Solving for Y, Initial residual = 0.0809718, Final residual = 4.7476e-08, No Iterations 66
DILUPBiCGStab:  Solving for Y, Initial residual = 0.0848645, Final residual = 8.17831e-08, No Iterations 67
DILUPBiCGStab:  Solving for Y, Initial residual = 0.0809718, Final residual = 7.37957e-07, No Iterations 65
DILUPBiCGStab:  Solving for Y, Initial residual = 0.0848654, Final residual = 1.89921e-07, No Iterations 66
DILUPBiCGStab:  Solving for Y, Initial residual = 0.0809718, Final residual = 4.74342e-07, No Iterations 66
DILUPBiCGStab:  Solving for Y, Initial residual = 0.0848639, Final residual = 6.61766e-08, No Iterations 67
DILUPBiCGStab:  Solving for Y, Initial residual = 0.0809718, Final residual = 3.29407e-07, No Iterations 67
DILUPBiCGStab:  Solving for Y, Initial residual = 0.0848649, Final residual = 4.78819e-08, No Iterations 67
DILUPBiCGStab:  Solving for Y, Initial residual = 0.0809718, Final residual = 2.06946e-07, No Iterations 66
DILUPBiCGStab:  Solving for Y, Initial residual = 0.0848643, Final residual = 6.30936e-08, No Iterations 67
DILUPBiCGStab:  Solving for Y, Initial residual = 0.0809718, Final residual = 2.31139e-07, No Iterations 67
DILUPBiCGStab:  Solving for Y, Initial residual = 0.0848648, Final residual = 1.59202e-07, No Iterations 67
DILUPBiCGStab:  Solving for Y, Initial residual = 0.0809718, Final residual = 8.42051e-07, No Iterations 66
DILUPBiCGStab:  Solving for Y, Initial residual = 0.0848635, Final residual = 2.49712e-07, No Iterations 66
DILUPBiCGStab:  Solving for Y, Initial residual = 0.0809718, Final residual = 6.74208e-07, No Iterations 66
DILUPBiCGStab:  Solving for Y, Initial residual = 0.0848637, Final residual = 9.72371e-07, No Iterations 64
DILUPBiCGStab:  Solving for Ux, Initial residual = 0.0227149, Final residual = 7.09822e-08, No Iterations 2
DILUPBiCGStab:  Solving for Uy, Initial residual = 0.024193, Final residual = 7.11986e-08, No Iterations 2
DILUPBiCGStab:  Solving for T, Initial residual = 0.00477231, Final residual = 1.91915e-07, No Iterations 2
DICPCG:  Solving for p_rgh, Initial residual = 0.179371, Final residual = 0.00168868, No Iterations 57
time step continuity errors : sum local = 3.75418e-05, global = 5.78506e-07, cumulative = -9.27694e-06
ExecutionTime = 4.14 s  ClockTime = 4 s

Time = 8

DILUPBiCGStab:  Solving for Y, Initial residual = 0.0816813, Final residual = 9.63104e-08, No Iterations 67
DILUPBiCGStab:  Solving for Y, Initial residual = 0.0849025, Final residual = 8.5556e-08, No Iterations 67
DILUPBiCGStab:  Solving for Y, Initial residual = 0.0810071, Final residual = 6.51638e-07, No Iterations 65
DILUPBiCGStab:  Solving for Y, Initial residual = 0.0849017, Final residual = 6.34619e-07, No Iterations 66
DILUPBiCGStab:  Solving for Y, Initial residual = 0.0810069, Final residual = 2.74406e-07, No Iterations 66
DILUPBiCGStab:  Solving for Y, Initial residual = 0.0849021, Final residual = 6.21381e-08, No Iterations 67
DILUPBiCGStab:  Solving for Y, Initial residual = 0.0810069, Final residual = 9.70737e-07, No Iterations 64
DILUPBiCGStab:  Solving for Y, Initial residual = 0.0849034, Final residual = 5.52009e-07, No Iterations 66
DILUPBiCGStab:  Solving for Y, Initial residual = 0.0810069, Final residual = 1.93086e-07, No Iterations 67
DILUPBiCGStab:  Solving for Y, Initial residual = 0.0849027, Final residual = 3.84227e-07, No Iterations 65
DILUPBiCGStab:  Solving for Y, Initial residual = 0.0810069, Final residual = 6.53194e-08, No Iterations 67
DILUPBiCGStab:  Solving for Y, Initial residual = 0.0849025, Final residual = 7.52413e-08, No Iterations 66
DILUPBiCGStab:  Solving for Y, Initial residual = 0.0810069, Final residual = 2.50189e-07, No Iterations 66
DILUPBiCGStab:  Solving for Y, Initial residual = 0.0849022, Final residual = 2.46955e-07, No Iterations 66
DILUPBiCGStab:  Solving for Y, Initial residual = 0.0810069, Final residual = 9.63854e-07, No Iterations 66
DILUPBiCGStab:  Solving for Y, Initial residual = 0.0849037, Final residual = 9.29554e-08, No Iterations 67
DILUPBiCGStab:  Solving for Y, Initial residual = 0.0810069, Final residual = 7.43156e-08, No Iterations 66
DILUPBiCGStab:  Solving for Y, Initial residual = 0.0849025, Final residual = 1.53088e-07, No Iterations 67
DILUPBiCGStab:  Solving for Y, Initial residual = 0.0810069, Final residual = 8.58542e-08, No Iterations 66
DILUPBiCGStab:  Solving for Y, Initial residual = 0.0849024, Final residual = 5.26297e-08, No Iterations 67
DILUPBiCGStab:  Solving for Y, Initial residual = 0.0810069, Final residual = 2.27383e-07, No Iterations 67
DILUPBiCGStab:  Solving for Y, Initial residual = 0.0849028, Final residual = 3.23868e-07, No Iterations 67
DILUPBiCGStab:  Solving for Y, Initial residual = 0.0810069, Final residual = 9.6782e-07, No Iterations 65
DILUPBiCGStab:  Solving for Y, Initial residual = 0.0849037, Final residual = 9.46975e-07, No Iterations 66
DILUPBiCGStab:  Solving for Y, Initial residual = 0.0810068, Final residual = 8.349e-07, No Iterations 66
DILUPBiCGStab:  Solving for Y, Initial residual = 0.0849014, Final residual = 7.00765e-08, No Iterations 67
DILUPBiCGStab:  Solving for Y, Initial residual = 0.0810069, Final residual = 4.71986e-08, No Iterations 67
DILUPBiCGStab:  Solving for Y, Initial residual = 0.0849025, Final residual = 1.42417e-07, No Iterations 67
DILUPBiCGStab:  Solving for Y, Initial residual = 0.0810069, Final residual = 1.41306e-07, No Iterations 67
DILUPBiCGStab:  Solving for Y, Initial residual = 0.0849026, Final residual = 6.50011e-07, No Iterations 66
DILUPBiCGStab:  Solving for Y, Initial residual = 0.0810068, Final residual = 2.96811e-07, No Iterations 66
DILUPBiCGStab:  Solving for Y, Initial residual = 0.0849021, Final residual = 1.76325e-07, No Iterations 65
DILUPBiCGStab:  Solving for Y, Initial residual = 0.0810069, Final residual = 6.82336e-08, No Iterations 67
DILUPBiCGStab:  Solving for Y, Initial residual = 0.0849025, Final residual = 4.33045e-08, No Iterations 67
DILUPBiCGStab:  Solving for Y, Initial residual = 0.0810069, Final residual = 5.37093e-08, No Iterations 67
DILUPBiCGStab:  Solving for Y, Initial residual = 0.0849025, Final residual = 9.75516e-07, No Iterations 66
DILUPBiCGStab:  Solving for Y, Initial residual = 0.081007, Final residual = 6.8106e-07, No Iterations 66
DILUPBiCGStab:  Solving for Y, Initial residual = 0.0849016, Final residual = 7.33037e-08, No Iterations 66
DILUPBiCGStab:  Solving for Y, Initial residual = 0.0810069, Final residual = 9.27051e-07, No Iterations 65
DILUPBiCGStab:  Solving for Y, Initial residual = 0.0849036, Final residual = 3.71215e-07, No Iterations 66
DILUPBiCGStab:  Solving for Ux, Initial residual = 0.0102915, Final residual = 9.20679e-07, No Iterations 2
DILUPBiCGStab:  Solving for Uy, Initial residual = 0.00710097, Final residual = 5.63365e-07, No Iterations 2
DILUPBiCGStab:  Solving for T, Initial residual = 0.0040149, Final residual = 1.61607e-07, No Iterations 2
DICPCG:  Solving for p_rgh, Initial residual = 0.0874628, Final residual = 0.000737201, No Iterations 54
time step continuity errors : sum local = 1.78482e-05, global = 1.31394e-07, cumulative = -9.14554e-06
ExecutionTime = 4.73 s  ClockTime = 4 s

Time = 9

DILUPBiCGStab:  Solving for Y, Initial residual = 0.0815686, Final residual = 9.71721e-07, No Iterations 66
DILUPBiCGStab:  Solving for Y, Initial residual = 0.0849164, Final residual = 2.7245e-07, No Iterations 67
DILUPBiCGStab:  Solving for Y, Initial residual = 0.0810195, Final residual = 8.02881e-08, No Iterations 67
DILUPBiCGStab:  Solving for Y, Initial residual = 0.0849154, Final residual = 1.8169e-07, No Iterations 67
DILUPBiCGStab:  Solving for Y, Initial residual = 0.0810193, Final residual = 4.65445e-07, No Iterations 66
DILUPBiCGStab:  Solving for Y, Initial residual = 0.0849147, Final residual = 1.84939e-07, No Iterations 66
DILUPBiCGStab:  Solving for Y, Initial residual = 0.0810193, Final residual = 8.48837e-07, No Iterations 66
DILUPBiCGStab:  Solving for Y, Initial residual = 0.0849163, Final residual = 6.13333e-07, No Iterations 66
DILUPBiCGStab:  Solving for Y, Initial residual = 0.0810193, Final residual = 3.18463e-07, No Iterations 66
DILUPBiCGStab:  Solving for Y, Initial residual = 0.0849157, Final residual = 1.43317e-07, No Iterations 65
DILUPBiCGStab:  Solving for Y, Initial residual = 0.0810193, Final residual = 7.71575e-07, No Iterations 66
DILUPBiCGStab:  Solving for Y, Initial residual = 0.0849143, Final residual = 5.93603e-07, No Iterations 66
DILUPBiCGStab:  Solving for Y, Initial residual = 0.0810193, Final residual = 1.31898e-07, No Iterations 67
DILUPBiCGStab:  Solving for Y, Initial residual = 0.0849154, Final residual = 7.49973e-07, No Iterations 66
DILUPBiCGStab:  Solving for Y, Initial residual = 0.0810193, Final residual = 1.60984e-07, No Iterations 66
DILUPBiCGStab:  Solving for Y, Initial residual = 0.0849155, Final residual = 1.28388e-07, No Iterations 66
DILUPBiCGStab:  Solving for Y, Initial residual = 0.0810193, Final residual = 1.41471e-07, No Iterations 67
DILUPBiCGStab:  Solving for Y, Initial residual = 0.0849155, Final residual = 6.07844e-07, No Iterations 66
DILUPBiCGStab:  Solving for Y, Initial residual = 0.0810192, Final residual = 8.59138e-07, No Iterations 66
DILUPBiCGStab:  Solving for Y, Initial residual = 0.0849164, Final residual = 3.70782e-07, No Iterations 67
DILUPBiCGStab:  Solving for Y, Initial residual = 0.0810193, Final residual = 4.03405e-07, No Iterations 66
DILUPBiCGStab:  Solving for Y, Initial residual = 0.0849148, Final residual = 4.02444e-07, No Iterations 65
DILUPBiCGStab:  Solving for Y, Initial residual = 0.0810192, Final residual = 1.70826e-07, No Iterations 66
DILUPBiCGStab:  Solving for Y, Initial residual = 0.0849151, Final residual = 8.66486e-08, No Iterations 66
DILUPBiCGStab:  Solving for Y, Initial residual = 0.0810193, Final residual = 4.13376e-07, No Iterations 66
DILUPBiCGStab:  Solving for Y, Initial residual = 0.0849148, Final residual = 8.31588e-07, No Iterations 67
DILUPBiCGStab:  Solving for Y, Initial residual = 0.0810193, Final residual = 8.68896e-07, No Iterations 66
DILUPBiCGStab:  Solving for Y, Initial residual = 0.0849142, Final residual = 6.67981e-07, No Iterations 66
DILUPBiCGStab:  Solving for Y, Initial residual = 0.0810192, Final residual = 6.76939e-07, No Iterations 65
DILUPBiCGStab:  Solving for Y, Initial residual = 0.0849161, Final residual = 1.13783e-07, No Iterations 66
DILUPBiCGStab:  Solving for Y, Initial residual = 0.0810193, Final residual = 7.53389e-08, No Iterations 67
DILUPBiCGStab:  Solving for Y, Initial residual = 0.0849154, Final residual = 6.17153e-07, No Iterations 65
DILUPBiCGStab:  Solving for Y, Initial residual = 0.0810193, Final residual = 4.32954e-08, No Iterations 67
DILUPBiCGStab:  Solving for Y, Initial residual = 0.0849153, Final residual = 7.03711e-07, No Iterations 65
DILUPBiCGStab:  Solving for Y, Initial residual = 0.0810193, Final residual = 6.13348e-07, No Iterations 66
DILUPBiCGStab:  Solving for Y, Initial residual = 0.0849145, Final residual = 3.17485e-07, No Iterations 66
DILUPBiCGStab:  Solving for Y, Initial residual = 0.0810192, Final residual = 3.54222e-07, No Iterations 66
DILUPBiCGStab:  Solving for Y, Initial residual = 0.0849149, Final residual = 7.54798e-08, No Iterations 67
DILUPBiCGStab:  Solving for Y, Initial residual = 0.0810193, Final residual = 4.3274e-07, No Iterations 66
DILUPBiCGStab:  Solving for Y, Initial residual = 0.0849147, Final residual = 2.20794e-07, No Iterations 66
DILUPBiCGStab:  Solving for Ux, Initial residual = 0.00947122, Final residual = 4.61413e-07, No Iterations 2
DILUPBiCGStab:  Solving for Uy, Initial residual = 0.0079669, Final residual = 6.65614e-07, No Iterations 2
DILUPBiCGStab:  Solving for T, Initial residual = 0.00345109, Final residual = 1.3814e-07, No Iterations 2
DICPCG:  Solving for p_rgh, Initial residual = 0.0641286, Final residual = 0.000615098, No Iterations 50
time step continuity errors : sum local = 1.44817e-05, global = -7.2713e-07, cumulative = -9.87267e-06
ExecutionTime = 5.31 s  ClockTime = 5 s

Time = 10

DILUPBiCGStab:  Solving for Y, Initial residual = 0.0815421, Final residual = 7.64505e-07, No Iterations 66
DILUPBiCGStab:  Solving for Y, Initial residual = 0.0849279, Final residual = 6.99042e-07, No Iterations 65
DILUPBiCGStab:  Solving for Y, Initial residual = 0.0810308, Final residual = 4.56866e-07, No Iterations 66
DILUPBiCGStab:  Solving for Y, Initial residual = 0.0849265, Final residual = 2.32604e-07, No Iterations 66
DILUPBiCGStab:  Solving for Y, Initial residual = 0.0810307, Final residual = 6.71384e-08, No Iterations 66
DILUPBiCGStab:  Solving for Y, Initial residual = 0.084927, Final residual = 9.77923e-07, No Iterations 64
DILUPBiCGStab:  Solving for Y, Initial residual = 0.0810306, Final residual = 5.49754e-07, No Iterations 66
DILUPBiCGStab:  Solving for Y, Initial residual = 0.0849277, Final residual = 9.7084e-08, No Iterations 67
DILUPBiCGStab:  Solving for Y, Initial residual = 0.0810307, Final residual = 5.90923e-07, No Iterations 66
DILUPBiCGStab:  Solving for Y, Initial residual = 0.0849263, Final residual = 3.28547e-07, No Iterations 66
DILUPBiCGStab:  Solving for Y, Initial residual = 0.0810307, Final residual = 1.08443e-07, No Iterations 67
DILUPBiCGStab:  Solving for Y, Initial residual = 0.0849272, Final residual = 6.64004e-08, No Iterations 67
DILUPBiCGStab:  Solving for Y, Initial residual = 0.0810307, Final residual = 1.76398e-07, No Iterations 67
DILUPBiCGStab:  Solving for Y, Initial residual = 0.0849272, Final residual = 9.62523e-07, No Iterations 66
DILUPBiCGStab:  Solving for Y, Initial residual = 0.0810308, Final residual = 2.56984e-07, No Iterations 66
DILUPBiCGStab:  Solving for Y, Initial residual = 0.0849274, Final residual = 9.38286e-08, No Iterations 67
DILUPBiCGStab:  Solving for Y, Initial residual = 0.0810307, Final residual = 1.31672e-07, No Iterations 66
DILUPBiCGStab:  Solving for Y, Initial residual = 0.0849272, Final residual = 1.24054e-07, No Iterations 66
DILUPBiCGStab:  Solving for Y, Initial residual = 0.0810307, Final residual = 9.65747e-07, No Iterations 65
DILUPBiCGStab:  Solving for Y, Initial residual = 0.0849283, Final residual = 5.56606e-08, No Iterations 67
DILUPBiCGStab:  Solving for Y, Initial residual = 0.0810307, Final residual = 1.91031e-07, No Iterations 66
DILUPBiCGStab:  Solving for Y, Initial residual = 0.0849268, Final residual = 9.75374e-07, No Iterations 66
DILUPBiCGStab:  Solving for Y, Initial residual = 0.0810306, Final residual = 1.23677e-07, No Iterations 67
DILUPBiCGStab:  Solving for Y, Initial residual = 0.0849272, Final residual = 2.75031e-07, No Iterations 66
DILUPBiCGStab:  Solving for Y, Initial residual = 0.0810307, Final residual = 7.12698e-07, No Iterations 66
DILUPBiCGStab:  Solving for Y, Initial residual = 0.0849279, Final residual = 4.20671e-07, No Iterations 66
DILUPBiCGStab:  Solving for Y, Initial residual = 0.0810307, Final residual = 1.08902e-07, No Iterations 66
DILUPBiCGStab:  Solving for Y, Initial residual = 0.0849269, Final residual = 2.39208e-07, No Iterations 66
DILUPBiCGStab:  Solving for Y, Initial residual = 0.0810307, Final residual = 8.64517e-07, No Iterations 64
DILUPBiCGStab:  Solving for Y, Initial residual = 0.0849279, Final residual = 5.72753e-07, No Iterations 67
DILUPBiCGStab:  Solving for Y, Initial residual = 0.0810308, Final residual = 8.25535e-07, No Iterations 66
DILUPBiCGStab:  Solving for Y, Initial residual = 0.084926, Final residual = 3.1579e-07, No Iterations 66
DILUPBiCGStab:  Solving for Y, Initial residual = 0.0810307, Final residual = 2.71614e-07, No Iterations 67
DILUPBiCGStab:  Solving for Y, Initial residual = 0.0849274, Final residual = 6.29131e-07, No Iterations 66
DILUPBiCGStab:  Solving for Y, Initial residual = 0.0810307, Final residual = 4.96618e-07, No Iterations 67
DILUPBiCGStab:  Solving for Y, Initial residual = 0.0849264, Final residual = 3.49724e-07, No Iterations 66
DILUPBiCGStab:  Solving for Y, Initial residual = 0.0810307, Final residual = 1.63036e-07, No Iterations 67
DILUPBiCGStab:  Solving for Y, Initial residual = 0.0849272, Final residual = 6.44288e-07, No Iterations 66
DILUPBiCGStab:  Solving for Y, Initial residual = 0.0810307, Final residual = 8.91486e-07, No Iterations 66
DILUPBiCGStab:  Solving for Y, Initial residual = 0.0849259, Final residual = 4.28981e-07, No Iterations 66
DILUPBiCGStab:  Solving for Ux, Initial residual = 0.00761487, Final residual = 8.3274e-07, No Iterations 2
DILUPBiCGStab:  Solving for Uy, Initial residual = 0.00636195, Final residual = 5.57759e-07, No Iterations 2
DILUPBiCGStab:  Solving for T, Initial residual = 0.00301508, Final residual = 1.19356e-07, No Iterations 2
DICPCG:  Solving for p_rgh, Initial residual = 0.0504995, Final residual = 0.000482948, No Iterations 54
time step continuity errors : sum local = 1.04539e-05, global = 8.97984e-08, cumulative = -9.78287e-06
ExecutionTime = 5.9 s  ClockTime = 6 s

Time = 11

DILUPBiCGStab:  Solving for Y, Initial residual = 0.0815068, Final residual = 4.5793e-07, No Iterations 66
DILUPBiCGStab:  Solving for Y, Initial residual = 0.0849029, Final residual = 9.61554e-08, No Iterations 67
DILUPBiCGStab:  Solving for Y, Initial residual = 0.0810103, Final residual = 6.51594e-08, No Iterations 67
DILUPBiCGStab:  Solving for Y, Initial residual = 0.0849035, Final residual = 9.9926e-07, No Iterations 65
DILUPBiCGStab:  Solving for Y, Initial residual = 0.0810103, Final residual = 4.78724e-07, No Iterations 66
DILUPBiCGStab:  Solving for Y, Initial residual = 0.084903, Final residual = 6.44242e-07, No Iterations 66
DILUPBiCGStab:  Solving for Y, Initial residual = 0.0810101, Final residual = 8.05039e-07, No Iterations 66
DILUPBiCGStab:  Solving for Y, Initial residual = 0.0849025, Final residual = 2.51068e-07, No Iterations 66
DILUPBiCGStab:  Solving for Y, Initial residual = 0.0810101, Final residual = 1.47712e-07, No Iterations 67
DILUPBiCGStab:  Solving for Y, Initial residual = 0.0849037, Final residual = 5.38828e-07, No Iterations 67
DILUPBiCGStab:  Solving for Y, Initial residual = 0.0810102, Final residual = 9.89516e-07, No Iterations 64
DILUPBiCGStab:  Solving for Y, Initial residual = 0.0849041, Final residual = 1.54153e-07, No Iterations 67
DILUPBiCGStab:  Solving for Y, Initial residual = 0.0810102, Final residual = 1.39929e-07, No Iterations 67
DILUPBiCGStab:  Solving for Y, Initial residual = 0.0849037, Final residual = 3.22942e-07, No Iterations 66
DILUPBiCGStab:  Solving for Y, Initial residual = 0.0810101, Final residual = 1.5984e-07, No Iterations 66
DILUPBiCGStab:  Solving for Y, Initial residual = 0.0849034, Final residual = 7.50399e-08, No Iterations 67
DILUPBiCGStab:  Solving for Y, Initial residual = 0.0810102, Final residual = 6.61495e-07, No Iterations 66
DILUPBiCGStab:  Solving for Y, Initial residual = 0.0849044, Final residual = 8.94304e-07, No Iterations 65
DILUPBiCGStab:  Solving for Y, Initial residual = 0.0810102, Final residual = 9.79022e-07, No Iterations 65
DILUPBiCGStab:  Solving for Y, Initial residual = 0.0849048, Final residual = 5.10994e-07, No Iterations 66
DILUPBiCGStab:  Solving for Y, Initial residual = 0.0810101, Final residual = 1.01278e-07, No Iterations 67
DILUPBiCGStab:  Solving for Y, Initial residual = 0.0849037, Final residual = 4.74342e-07, No Iterations 66
DILUPBiCGStab:  Solving for Y, Initial residual = 0.0810101, Final residual = 6.86312e-07, No Iterations 66
DILUPBiCGStab:  Solving for Y, Initial residual = 0.0849027, Final residual = 1.19137e-07, No Iterations 66
DILUPBiCGStab:  Solving for Y, Initial residual = 0.0810101, Final residual = 2.22962e-07, No Iterations 66
DILUPBiCGStab:  Solving for Y, Initial residual = 0.0849038, Final residual = 9.76821e-07, No Iterations 65
DILUPBiCGStab:  Solving for Y, Initial residual = 0.0810102, Final residual = 2.39565e-07, No Iterations 66
DILUPBiCGStab:  Solving for Y, Initial residual = 0.0849039, Final residual = 2.50051e-07, No Iterations 66
DILUPBiCGStab:  Solving for Y, Initial residual = 0.0810102, Final residual = 7.08231e-07, No Iterations 66
DILUPBiCGStab:  Solving for Y, Initial residual = 0.0849027, Final residual = 6.47586e-08, No Iterations 67
DILUPBiCGStab:  Solving for Y, Initial residual = 0.0810101, Final residual = 4.72956e-07, No Iterations 66
DILUPBiCGStab:  Solving for Y, Initial residual = 0.0849042, Final residual = 9.05535e-07, No Iterations 65
DILUPBiCGStab:  Solving for Y, Initial residual = 0.0810102, Final residual = 2.66251e-07, No Iterations 67
DILUPBiCGStab:  Solving for Y, Initial residual = 0.0849039, Final residual = 8.15958e-07, No Iterations 66
DILUPBiCGStab:  Solving for Y, Initial residual = 0.0810101, Final residual = 6.61722e-07, No Iterations 66
DILUPBiCGStab:  Solving for Y, Initial residual = 0.0849027, Final residual = 8.18623e-07, No Iterations 65
DILUPBiCGStab:  Solving for Y, Initial residual = 0.0810102, Final residual = 2.00925e-07, No Iterations 66
DILUPBiCGStab:  Solving for Y, Initial residual = 0.0849038, Final residual = 8.56358e-07, No Iterations 65
DILUPBiCGStab:  Solving for Y, Initial residual = 0.0810102, Final residual = 5.53727e-07, No Iterations 66
DILUPBiCGStab:  Solving for Y, Initial residual = 0.0849029, Final residual = 1.17577e-07, No Iterations 67
DILUPBiCGStab:  Solving for Ux, Initial residual = 0.00686671, Final residual = 3.73354e-07, No Iterations 2
DILUPBiCGStab:  Solving for Uy, Initial residual = 0.00516598, Final residual = 3.63368e-07, No Iterations 2
DILUPBiCGStab:  Solving for T, Initial residual = 0.00266893, Final residual = 1.04707e-07, No Iterations 2
DICPCG:  Solving for p_rgh, Initial residual = 0.0379743, Final residual = 0.000350799, No Iterations 28
time step continuity errors : sum local = 7.09189e-06, global = -6.07837e-07, cumulative = -1.03907e-05
ExecutionTime = 6.48 s  ClockTime = 6 s

Time = 12

DILUPBiCGStab:  Solving for Y, Initial residual = 0.0814547, Final residual = 6.57744e-07, No Iterations 66
DILUPBiCGStab:  Solving for Y, Initial residual = 0.0848657, Final residual = 6.56063e-08, No Iterations 66
DILUPBiCGStab:  Solving for Y, Initial residual = 0.080976, Final residual = 3.35827e-07, No Iterations 66
DILUPBiCGStab:  Solving for Y, Initial residual = 0.0848653, Final residual = 9.90736e-07, No Iterations 66
DILUPBiCGStab:  Solving for Y, Initial residual = 0.0809759, Final residual = 4.75542e-08, No Iterations 67
DILUPBiCGStab:  Solving for Y, Initial residual = 0.0848649, Final residual = 6.52582e-08, No Iterations 66
DILUPBiCGStab:  Solving for Y, Initial residual = 0.0809758, Final residual = 1.84249e-07, No Iterations 66
DILUPBiCGStab:  Solving for Y, Initial residual = 0.0848651, Final residual = 9.46775e-07, No Iterations 66
DILUPBiCGStab:  Solving for Y, Initial residual = 0.0809757, Final residual = 2.2055e-07, No Iterations 66
DILUPBiCGStab:  Solving for Y, Initial residual = 0.0848647, Final residual = 2.26538e-07, No Iterations 66
DILUPBiCGStab:  Solving for Y, Initial residual = 0.0809758, Final residual = 6.457e-08, No Iterations 66
DILUPBiCGStab:  Solving for Y, Initial residual = 0.0848649, Final residual = 5.64602e-08, No Iterations 67
DILUPBiCGStab:  Solving for Y, Initial residual = 0.0809758, Final residual = 9.06957e-07, No Iterations 65
DILUPBiCGStab:  Solving for Y, Initial residual = 0.0848661, Final residual = 9.87996e-07, No Iterations 64
DILUPBiCGStab:  Solving for Y, Initial residual = 0.0809758, Final residual = 5.7011e-08, No Iterations 66
DILUPBiCGStab:  Solving for Y, Initial residual = 0.0848649, Final residual = 8.46168e-07, No Iterations 66
DILUPBiCGStab:  Solving for Y, Initial residual = 0.0809759, Final residual = 1.95256e-07, No Iterations 67
DILUPBiCGStab:  Solving for Y, Initial residual = 0.0848652, Final residual = 1.39832e-07, No Iterations 67
DILUPBiCGStab:  Solving for Y, Initial residual = 0.0809758, Final residual = 1.04092e-07, No Iterations 66
DILUPBiCGStab:  Solving for Y, Initial residual = 0.0848648, Final residual = 1.53879e-07, No Iterations 66
DILUPBiCGStab:  Solving for Y, Initial residual = 0.0809758, Final residual = 4.89855e-08, No Iterations 67
DILUPBiCGStab:  Solving for Y, Initial residual = 0.0848649, Final residual = 1.23869e-07, No Iterations 67
DILUPBiCGStab:  Solving for Y, Initial residual = 0.0809758, Final residual = 9.99093e-07, No Iterations 65
DILUPBiCGStab:  Solving for Y, Initial residual = 0.0848662, Final residual = 2.0457e-07, No Iterations 66
DILUPBiCGStab:  Solving for Y, Initial residual = 0.0809758, Final residual = 8.0411e-07, No Iterations 65
DILUPBiCGStab:  Solving for Y, Initial residual = 0.084866, Final residual = 2.0105e-07, No Iterations 66
DILUPBiCGStab:  Solving for Y, Initial residual = 0.0809758, Final residual = 8.41064e-08, No Iterations 67
DILUPBiCGStab:  Solving for Y, Initial residual = 0.084865, Final residual = 5.68586e-07, No Iterations 65
DILUPBiCGStab:  Solving for Y, Initial residual = 0.0809759, Final residual = 2.83829e-07, No Iterations 67
DILUPBiCGStab:  Solving for Y, Initial residual = 0.0848653, Final residual = 4.7669e-07, No Iterations 66
DILUPBiCGStab:  Solving for Y, Initial residual = 0.0809758, Final residual = 4.14804e-07, No Iterations 66
DILUPBiCGStab:  Solving for Y, Initial residual = 0.0848644, Final residual = 5.753e-08, No Iterations 66
DILUPBiCGStab:  Solving for Y, Initial residual = 0.0809758, Final residual = 1.78474e-07, No Iterations 66
DILUPBiCGStab:  Solving for Y, Initial residual = 0.0848647, Final residual = 1.823e-07, No Iterations 67
DILUPBiCGStab:  Solving for Y, Initial residual = 0.0809758, Final residual = 6.1559e-08, No Iterations 66
DILUPBiCGStab:  Solving for Y, Initial residual = 0.0848649, Final residual = 8.85603e-07, No Iterations 66
DILUPBiCGStab:  Solving for Y, Initial residual = 0.0809758, Final residual = 3.66621e-07, No Iterations 66
DILUPBiCGStab:  Solving for Y, Initial residual = 0.0848645, Final residual = 9.85624e-07, No Iterations 66
DILUPBiCGStab:  Solving for Y, Initial residual = 0.0809759, Final residual = 9.43256e-07, No Iterations 65
DILUPBiCGStab:  Solving for Y, Initial residual = 0.0848661, Final residual = 6.29709e-07, No Iterations 65
DILUPBiCGStab:  Solving for Ux, Initial residual = 0.00681045, Final residual = 4.51159e-07, No Iterations 2
DILUPBiCGStab:  Solving for Uy, Initial residual = 0.00473618, Final residual = 3.35872e-07, No Iterations 2
DILUPBiCGStab:  Solving for T, Initial residual = 0.0023881, Final residual = 9.35646e-08, No Iterations 2
DICPCG:  Solving for p_rgh, Initial residual = 0.0298167, Final residual = 0.000281421, No Iterations 37
time step continuity errors : sum local = 5.67716e-06, global = 1.37627e-06, cumulative = -9.01444e-06
ExecutionTime = 7.07 s  ClockTime = 7 s

Time = 13

DILUPBiCGStab:  Solving for Y, Initial residual = 0.0814005, Final residual = 6.00788e-07, No Iterations 67
DILUPBiCGStab:  Solving for Y, Initial residual = 0.0848175, Final residual = 4.37331e-07, No Iterations 66
DILUPBiCGStab:  Solving for Y, Initial residual = 0.0809329, Final residual = 3.19346e-07, No Iterations 66
DILUPBiCGStab:  Solving for Y, Initial residual = 0.0848164, Final residual = 7.95347e-07, No Iterations 66
DILUPBiCGStab:  Solving for Y, Initial residual = 0.0809328, Final residual = 9.09082e-07, No Iterations 65
DILUPBiCGStab:  Solving for Y, Initial residual = 0.084818, Final residual = 1.63144e-07, No Iterations 66
DILUPBiCGStab:  Solving for Y, Initial residual = 0.0809329, Final residual = 4.3804e-07, No Iterations 66
DILUPBiCGStab:  Solving for Y, Initial residual = 0.0848162, Final residual = 1.56259e-07, No Iterations 67
DILUPBiCGStab:  Solving for Y, Initial residual = 0.0809328, Final residual = 9.61564e-07, No Iterations 64
DILUPBiCGStab:  Solving for Y, Initial residual = 0.0848175, Final residual = 9.42137e-07, No Iterations 66
DILUPBiCGStab:  Solving for Y, Initial residual = 0.0809329, Final residual = 5.41388e-08, No Iterations 67
DILUPBiCGStab:  Solving for Y, Initial residual = 0.0848168, Final residual = 1.11079e-07, No Iterations 67
DILUPBiCGStab:  Solving for Y, Initial residual = 0.0809328, Final residual = 9.84438e-07, No Iterations 65
DILUPBiCGStab:  Solving for Y, Initial residual = 0.084818, Final residual = 2.27231e-07, No Iterations 66
DILUPBiCGStab:  Solving for Y, Initial residual = 0.0809329, Final residual = 7.23079e-08, No Iterations 67
DILUPBiCGStab:  Solving for Y, Initial residual = 0.0848168, Final residual = 9.95475e-07, No Iterations 65
DILUPBiCGStab:  Solving for Y, Initial residual = 0.0809329, Final residual = 2.53363e-07, No Iterations 66
DILUPBiCGStab:  Solving for Y, Initial residual = 0.0848165, Final residual = 6.88149e-07, No Iterations 66
DILUPBiCGStab:  Solving for Y, Initial residual = 0.0809329, Final residual = 5.38387e-07, No Iterations 66
DILUPBiCGStab:  Solving for Y, Initial residual = 0.0848161, Final residual = 5.52659e-07, No Iterations 65
DILUPBiCGStab:  Solving for Y, Initial residual = 0.0809329, Final residual = 2.75145e-07, No Iterations 66
DILUPBiCGStab:  Solving for Y, Initial residual = 0.0848164, Final residual = 7.57185e-08, No Iterations 65
DILUPBiCGStab:  Solving for Y, Initial residual = 0.0809328, Final residual = 5.88919e-07, No Iterations 66
DILUPBiCGStab:  Solving for Y, Initial residual = 0.084816, Final residual = 5.07131e-08, No Iterations 67
DILUPBiCGStab:  Solving for Y, Initial residual = 0.0809328, Final residual = 5.77621e-08, No Iterations 67
DILUPBiCGStab:  Solving for Y, Initial residual = 0.0848168, Final residual = 2.49782e-07, No Iterations 66
DILUPBiCGStab:  Solving for Y, Initial residual = 0.0809328, Final residual = 4.06398e-08, No Iterations 67
DILUPBiCGStab:  Solving for Y, Initial residual = 0.0848168, Final residual = 4.18253e-07, No Iterations 66
DILUPBiCGStab:  Solving for Y, Initial residual = 0.0809328, Final residual = 3.53359e-07, No Iterations 66
DILUPBiCGStab:  Solving for Y, Initial residual = 0.0848163, Final residual = 4.91723e-08, No Iterations 67
DILUPBiCGStab:  Solving for Y, Initial residual = 0.0809328, Final residual = 3.62292e-07, No Iterations 66
DILUPBiCGStab:  Solving for Y, Initial residual = 0.0848163, Final residual = 5.80342e-07, No Iterations 65
DILUPBiCGStab:  Solving for Y, Initial residual = 0.0809329, Final residual = 1.98174e-07, No Iterations 66
DILUPBiCGStab:  Solving for Y, Initial residual = 0.0848166, Final residual = 8.5789e-07, No Iterations 65
DILUPBiCGStab:  Solving for Y, Initial residual = 0.0809329, Final residual = 8.07925e-07, No Iterations 66
DILUPBiCGStab:  Solving for Y, Initial residual = 0.0848178, Final residual = 1.06076e-07, No Iterations 67
DILUPBiCGStab:  Solving for Y, Initial residual = 0.0809329, Final residual = 5.68653e-07, No Iterations 66
DILUPBiCGStab:  Solving for Y, Initial residual = 0.0848161, Final residual = 2.22135e-07, No Iterations 66
DILUPBiCGStab:  Solving for Y, Initial residual = 0.0809328, Final residual = 7.57826e-07, No Iterations 64
DILUPBiCGStab:  Solving for Y, Initial residual = 0.0848169, Final residual = 6.42641e-08, No Iterations 66
DILUPBiCGStab:  Solving for Ux, Initial residual = 0.00654037, Final residual = 4.39421e-07, No Iterations 2
DILUPBiCGStab:  Solving for Uy, Initial residual = 0.00432937, Final residual = 3.02249e-07, No Iterations 2
DILUPBiCGStab:  Solving for T, Initial residual = 0.00215619, Final residual = 8.47189e-08, No Iterations 2
DICPCG:  Solving for p_rgh, Initial residual = 0.0244002, Final residual = 0.000218868, No Iterations 46
time step continuity errors : sum local = 4.40437e-06, global = -3.39518e-08, cumulative = -9.0484e-06
ExecutionTime = 7.65 s  ClockTime = 7 s

Time = 14

DILUPBiCGStab:  Solving for Y, Initial residual = 0.0813353, Final residual = 7.09477e-07, No Iterations 66
DILUPBiCGStab:  Solving for Y, Initial residual = 0.0847643, Final residual = 4.16415e-07, No Iterations 66
DILUPBiCGStab:  Solving for Y, Initial residual = 0.0808852, Final residual = 1.23133e-07, No Iterations 67
DILUPBiCGStab:  Solving for Y, Initial residual = 0.0847636, Final residual = 9.49011e-07, No Iterations 66
DILUPBiCGStab:  Solving for Y, Initial residual = 0.080885, Final residual = 4.83071e-08, No Iterations 67
DILUPBiCGStab:  Solving for Y, Initial residual = 0.0847635, Final residual = 7.57866e-07, No Iterations 65
DILUPBiCGStab:  Solving for Y, Initial residual = 0.0808852, Final residual = 2.578e-07, No Iterations 66
DILUPBiCGStab:  Solving for Y, Initial residual = 0.0847631, Final residual = 5.83551e-08, No Iterations 67
DILUPBiCGStab:  Solving for Y, Initial residual = 0.0808851, Final residual = 5.70247e-07, No Iterations 66
DILUPBiCGStab:  Solving for Y, Initial residual = 0.0847627, Final residual = 2.60801e-07, No Iterations 66
DILUPBiCGStab:  Solving for Y, Initial residual = 0.0808851, Final residual = 8.16169e-07, No Iterations 66
DILUPBiCGStab:  Solving for Y, Initial residual = 0.0847645, Final residual = 1.14978e-07, No Iterations 67
DILUPBiCGStab:  Solving for Y, Initial residual = 0.0808851, Final residual = 8.8956e-08, No Iterations 67
DILUPBiCGStab:  Solving for Y, Initial residual = 0.0847635, Final residual = 7.29623e-08, No Iterations 66
DILUPBiCGStab:  Solving for Y, Initial residual = 0.0808851, Final residual = 6.26718e-08, No Iterations 68
DILUPBiCGStab:  Solving for Y, Initial residual = 0.0847635, Final residual = 1.29287e-07, No Iterations 66
DILUPBiCGStab:  Solving for Y, Initial residual = 0.0808851, Final residual = 1.02891e-07, No Iterations 67
DILUPBiCGStab:  Solving for Y, Initial residual = 0.0847636, Final residual = 2.57103e-07, No Iterations 66
DILUPBiCGStab:  Solving for Y, Initial residual = 0.0808851, Final residual = 9.85211e-07, No Iterations 65
DILUPBiCGStab:  Solving for Y, Initial residual = 0.0847647, Final residual = 8.08696e-07, No Iterations 66
DILUPBiCGStab:  Solving for Y, Initial residual = 0.0808852, Final residual = 7.75996e-07, No Iterations 65
DILUPBiCGStab:  Solving for Y, Initial residual = 0.0847645, Final residual = 7.43647e-07, No Iterations 65
DILUPBiCGStab:  Solving for Y, Initial residual = 0.080885, Final residual = 1.25966e-07, No Iterations 67
DILUPBiCGStab:  Solving for Y, Initial residual = 0.0847636, Final residual = 5.25048e-07, No Iterations 66
DILUPBiCGStab:  Solving for Y, Initial residual = 0.0808851, Final residual = 4.37496e-07, No Iterations 66
DILUPBiCGStab:  Solving for Y, Initial residual = 0.0847629, Final residual = 5.71563e-07, No Iterations 66
DILUPBiCGStab:  Solving for Y, Initial residual = 0.0808851, Final residual = 5.64861e-07, No Iterations 65
DILUPBiCGStab:  Solving for Y, Initial residual = 0.0847642, Final residual = 8.85243e-08, No Iterations 66
DILUPBiCGStab:  Solving for Y, Initial residual = 0.0808851, Final residual = 1.09198e-07, No Iterations 67
DILUPBiCGStab:  Solving for Y, Initial residual = 0.0847636, Final residual = 8.86786e-07, No Iterations 64
DILUPBiCGStab:  Solving for Y, Initial residual = 0.080885, Final residual = 3.31512e-07, No Iterations 66
DILUPBiCGStab:  Solving for Y, Initial residual = 0.0847639, Final residual = 5.55705e-07, No Iterations 66
DILUPBiCGStab:  Solving for Y, Initial residual = 0.0808851, Final residual = 1.54609e-07, No Iterations 66
DILUPBiCGStab:  Solving for Y, Initial residual = 0.0847633, Final residual = 4.84334e-07, No Iterations 66
DILUPBiCGStab:  Solving for Y, Initial residual = 0.0808851, Final residual = 3.25463e-07, No Iterations 66
DILUPBiCGStab:  Solving for Y, Initial residual = 0.0847639, Final residual = 2.96339e-07, No Iterations 66
DILUPBiCGStab:  Solving for Y, Initial residual = 0.0808851, Final residual = 9.35032e-08, No Iterations 67
DILUPBiCGStab:  Solving for Y, Initial residual = 0.0847635, Final residual = 5.76945e-07, No Iterations 66
DILUPBiCGStab:  Solving for Y, Initial residual = 0.0808852, Final residual = 4.37562e-07, No Iterations 66
DILUPBiCGStab:  Solving for Y, Initial residual = 0.0847629, Final residual = 2.14596e-07, No Iterations 67
DILUPBiCGStab:  Solving for Ux, Initial residual = 0.00635594, Final residual = 3.95674e-07, No Iterations 2
DILUPBiCGStab:  Solving for Uy, Initial residual = 0.0042482, Final residual = 2.92396e-07, No Iterations 2
DILUPBiCGStab:  Solving for T, Initial residual = 0.00196182, Final residual = 7.80157e-08, No Iterations 2
DICPCG:  Solving for p_rgh, Initial residual = 0.0208448, Final residual = 0.000199053, No Iterations 24
time step continuity errors : sum local = 4.01973e-06, global = -1.9347e-07, cumulative = -9.24187e-06
ExecutionTime = 8.24 s  ClockTime = 8 s

Time = 15

DILUPBiCGStab:  Solving for Y, Initial residual = 0.0812699, Final residual = 1.04093e-07, No Iterations 67
DILUPBiCGStab:  Solving for Y, Initial residual = 0.0846923, Final residual = 5.59406e-07, No Iterations 66
DILUPBiCGStab:  Solving for Y, Initial residual = 0.0808215, Final residual = 8.53401e-07, No Iterations 64
DILUPBiCGStab:  Solving for Y, Initial residual = 0.084693, Final residual = 6.96799e-07, No Iterations 66
DILUPBiCGStab:  Solving for Y, Initial residual = 0.0808212, Final residual = 8.4838e-07, No Iterations 65
DILUPBiCGStab:  Solving for Y, Initial residual = 0.0846935, Final residual = 6.37677e-08, No Iterations 67
DILUPBiCGStab:  Solving for Y, Initial residual = 0.0808213, Final residual = 8.47236e-08, No Iterations 67
DILUPBiCGStab:  Solving for Y, Initial residual = 0.0846925, Final residual = 1.88161e-07, No Iterations 67
DILUPBiCGStab:  Solving for Y, Initial residual = 0.0808213, Final residual = 5.02784e-07, No Iterations 66
DILUPBiCGStab:  Solving for Y, Initial residual = 0.0846918, Final residual = 9.15614e-08, No Iterations 67
DILUPBiCGStab:  Solving for Y, Initial residual = 0.0808213, Final residual = 4.55329e-07, No Iterations 66
DILUPBiCGStab:  Solving for Y, Initial residual = 0.0846918, Final residual = 5.15704e-07, No Iterations 66
DILUPBiCGStab:  Solving for Y, Initial residual = 0.0808212, Final residual = 3.36566e-07, No Iterations 66
DILUPBiCGStab:  Solving for Y, Initial residual = 0.084692, Final residual = 3.29888e-07, No Iterations 66
DILUPBiCGStab:  Solving for Y, Initial residual = 0.0808212, Final residual = 7.79591e-07, No Iterations 66
DILUPBiCGStab:  Solving for Y, Initial residual = 0.0846914, Final residual = 5.54708e-08, No Iterations 67
DILUPBiCGStab:  Solving for Y, Initial residual = 0.0808213, Final residual = 1.19017e-07, No Iterations 67
DILUPBiCGStab:  Solving for Y, Initial residual = 0.0846925, Final residual = 7.87397e-07, No Iterations 66
DILUPBiCGStab:  Solving for Y, Initial residual = 0.0808212, Final residual = 9.78816e-07, No Iterations 65
DILUPBiCGStab:  Solving for Y, Initial residual = 0.0846937, Final residual = 5.83752e-07, No Iterations 66
DILUPBiCGStab:  Solving for Y, Initial residual = 0.0808213, Final residual = 4.26257e-07, No Iterations 65
DILUPBiCGStab:  Solving for Y, Initial residual = 0.084693, Final residual = 2.96292e-07, No Iterations 66
DILUPBiCGStab:  Solving for Y, Initial residual = 0.0808213, Final residual = 6.57637e-07, No Iterations 66
DILUPBiCGStab:  Solving for Y, Initial residual = 0.0846916, Final residual = 1.98739e-07, No Iterations 67
DILUPBiCGStab:  Solving for Y, Initial residual = 0.0808213, Final residual = 1.19493e-07, No Iterations 67
DILUPBiCGStab:  Solving for Y, Initial residual = 0.0846925, Final residual = 8.94994e-08, No Iterations 67
DILUPBiCGStab:  Solving for Y, Initial residual = 0.0808213, Final residual = 9.65886e-08, No Iterations 67
DILUPBiCGStab:  Solving for Y, Initial residual = 0.0846925, Final residual = 3.01109e-07, No Iterations 66
DILUPBiCGStab:  Solving for Y, Initial residual = 0.0808213, Final residual = 9.29662e-07, No Iterations 65
DILUPBiCGStab:  Solving for Y, Initial residual = 0.0846936, Final residual = 4.41209e-07, No Iterations 66
DILUPBiCGStab:  Solving for Y, Initial residual = 0.0808213, Final residual = 9.48879e-07, No Iterations 64
DILUPBiCGStab:  Solving for Y, Initial residual = 0.0846929, Final residual = 6.49286e-07, No Iterations 66
DILUPBiCGStab:  Solving for Y, Initial residual = 0.0808212, Final residual = 6.21732e-07, No Iterations 66
DILUPBiCGStab:  Solving for Y, Initial residual = 0.0846916, Final residual = 1.55166e-07, No Iterations 67
DILUPBiCGStab:  Solving for Y, Initial residual = 0.0808213, Final residual = 5.74564e-07, No Iterations 66
DILUPBiCGStab:  Solving for Y, Initial residual = 0.0846917, Final residual = 8.48359e-08, No Iterations 67
DILUPBiCGStab:  Solving for Y, Initial residual = 0.0808213, Final residual = 3.06736e-07, No Iterations 66
DILUPBiCGStab:  Solving for Y, Initial residual = 0.0846928, Final residual = 6.12467e-07, No Iterations 66
DILUPBiCGStab:  Solving for Y, Initial residual = 0.0808213, Final residual = 8.10642e-07, No Iterations 65
DILUPBiCGStab:  Solving for Y, Initial residual = 0.0846935, Final residual = 4.11207e-07, No Iterations 66
DILUPBiCGStab:  Solving for Ux, Initial residual = 0.00615644, Final residual = 3.70709e-07, No Iterations 2
DILUPBiCGStab:  Solving for Uy, Initial residual = 0.00414382, Final residual = 2.87549e-07, No Iterations 2
DILUPBiCGStab:  Solving for T, Initial residual = 0.00179702, Final residual = 9.77362e-07, No Iterations 2
DICPCG:  Solving for p_rgh, Initial residual = 0.0183683, Final residual = 0.000174161, No Iterations 43
time step continuity errors : sum local = 3.47639e-06, global = 6.3262e-08, cumulative = -9.1786e-06
ExecutionTime = 8.83 s  ClockTime = 8 s

Time = 16

DILUPBiCGStab:  Solving for Y, Initial residual = 0.0811888, Final residual = 9.61133e-07, No Iterations 66
DILUPBiCGStab:  Solving for Y, Initial residual = 0.08461, Final residual = 1.60166e-07, No Iterations 67
DILUPBiCGStab:  Solving for Y, Initial residual = 0.0807463, Final residual = 1.01779e-07, No Iterations 67
DILUPBiCGStab:  Solving for Y, Initial residual = 0.084609, Final residual = 1.39583e-07, No Iterations 66
DILUPBiCGStab:  Solving for Y, Initial residual = 0.0807461, Final residual = 8.48707e-08, No Iterations 66
DILUPBiCGStab:  Solving for Y, Initial residual = 0.0846089, Final residual = 2.76888e-07, No Iterations 67
DILUPBiCGStab:  Solving for Y, Initial residual = 0.0807461, Final residual = 3.10532e-07, No Iterations 66
DILUPBiCGStab:  Solving for Y, Initial residual = 0.0846085, Final residual = 3.39671e-07, No Iterations 66
DILUPBiCGStab:  Solving for Y, Initial residual = 0.0807461, Final residual = 3.34514e-07, No Iterations 66
DILUPBiCGStab:  Solving for Y, Initial residual = 0.0846084, Final residual = 4.05569e-07, No Iterations 66
DILUPBiCGStab:  Solving for Y, Initial residual = 0.0807461, Final residual = 1.22395e-07, No Iterations 66
DILUPBiCGStab:  Solving for Y, Initial residual = 0.084609, Final residual = 3.87382e-07, No Iterations 65
DILUPBiCGStab:  Solving for Y, Initial residual = 0.0807461, Final residual = 1.56152e-07, No Iterations 65
DILUPBiCGStab:  Solving for Y, Initial residual = 0.084609, Final residual = 3.55892e-07, No Iterations 66
DILUPBiCGStab:  Solving for Y, Initial residual = 0.0807461, Final residual = 9.38932e-07, No Iterations 64
DILUPBiCGStab:  Solving for Y, Initial residual = 0.0846099, Final residual = 6.73984e-07, No Iterations 66
DILUPBiCGStab:  Solving for Y, Initial residual = 0.0807462, Final residual = 1.08547e-07, No Iterations 66
DILUPBiCGStab:  Solving for Y, Initial residual = 0.0846087, Final residual = 9.91497e-07, No Iterations 64
DILUPBiCGStab:  Solving for Y, Initial residual = 0.0807461, Final residual = 8.46597e-08, No Iterations 67
DILUPBiCGStab:  Solving for Y, Initial residual = 0.0846089, Final residual = 4.78646e-07, No Iterations 66
DILUPBiCGStab:  Solving for Y, Initial residual = 0.0807461, Final residual = 4.651e-08, No Iterations 67
DILUPBiCGStab:  Solving for Y, Initial residual = 0.0846089, Final residual = 4.13596e-07, No Iterations 66
DILUPBiCGStab:  Solving for Y, Initial residual = 0.0807461, Final residual = 9.9913e-08, No Iterations 66
DILUPBiCGStab:  Solving for Y, Initial residual = 0.0846088, Final residual = 1.17117e-07, No Iterations 67
DILUPBiCGStab:  Solving for Y, Initial residual = 0.0807461, Final residual = 7.79293e-08, No Iterations 65
DILUPBiCGStab:  Solving for Y, Initial residual = 0.0846088, Final residual = 7.37722e-07, No Iterations 66
DILUPBiCGStab:  Solving for Y, Initial residual = 0.080746, Final residual = 1.51982e-07, No Iterations 66
DILUPBiCGStab:  Solving for Y, Initial residual = 0.0846087, Final residual = 2.31298e-07, No Iterations 66
DILUPBiCGStab:  Solving for Y, Initial residual = 0.0807461, Final residual = 4.04606e-07, No Iterations 65
DILUPBiCGStab:  Solving for Y, Initial residual = 0.0846094, Final residual = 1.24265e-07, No Iterations 67
DILUPBiCGStab:  Solving for Y, Initial residual = 0.0807461, Final residual = 4.97598e-07, No Iterations 66
DILUPBiCGStab:  Solving for Y, Initial residual = 0.0846095, Final residual = 3.78551e-07, No Iterations 66
DILUPBiCGStab:  Solving for Y, Initial residual = 0.0807461, Final residual = 9.7777e-07, No Iterations 65
DILUPBiCGStab:  Solving for Y, Initial residual = 0.0846101, Final residual = 9.6708e-07, No Iterations 66
DILUPBiCGStab:  Solving for Y, Initial residual = 0.0807462, Final residual = 6.19119e-08, No Iterations 67
[...]
DILUPBiCGStab:  Solving for Y, Initial residual = 0.0666083, Final residual = 8.9792e-07, No Iterations 66
DILUPBiCGStab:  Solving for Y, Initial residual = 0.0691322, Final residual = 6.72998e-07, No Iterations 65
DILUPBiCGStab:  Solving for Y, Initial residual = 0.0666082, Final residual = 3.29723e-07, No Iterations 67
DILUPBiCGStab:  Solving for Y, Initial residual = 0.0691315, Final residual = 8.53898e-07, No Iterations 65
DILUPBiCGStab:  Solving for Y, Initial residual = 0.0666083, Final residual = 6.99951e-07, No Iterations 66
DILUPBiCGStab:  Solving for Y, Initial residual = 0.0691319, Final residual = 8.57965e-07, No Iterations 66
DILUPBiCGStab:  Solving for Y, Initial residual = 0.0666083, Final residual = 9.43522e-07, No Iterations 66
DILUPBiCGStab:  Solving for Y, Initial residual = 0.0691322, Final residual = 6.59105e-07, No Iterations 65
DILUPBiCGStab:  Solving for Y, Initial residual = 0.0666083, Final residual = 8.61392e-07, No Iterations 65
DILUPBiCGStab:  Solving for Y, Initial residual = 0.069132, Final residual = 4.63903e-07, No Iterations 66
DILUPBiCGStab:  Solving for Y, Initial residual = 0.0666083, Final residual = 8.218e-07, No Iterations 67
DILUPBiCGStab:  Solving for Y, Initial residual = 0.0691321, Final residual = 7.99054e-07, No Iterations 66
DILUPBiCGStab:  Solving for Y, Initial residual = 0.0666083, Final residual = 6.90756e-07, No Iterations 66
DILUPBiCGStab:  Solving for Y, Initial residual = 0.0691319, Final residual = 9.65761e-07, No Iterations 66
DILUPBiCGStab:  Solving for Y, Initial residual = 0.0666084, Final residual = 9.35178e-07, No Iterations 66
DILUPBiCGStab:  Solving for Y, Initial residual = 0.0691322, Final residual = 6.55419e-07, No Iterations 66
DILUPBiCGStab:  Solving for Y, Initial residual = 0.0666083, Final residual = 9.32643e-07, No Iterations 66
DILUPBiCGStab:  Solving for Y, Initial residual = 0.0691322, Final residual = 1.37527e-07, No Iterations 67
DILUPBiCGStab:  Solving for Y, Initial residual = 0.0666083, Final residual = 9.03519e-07, No Iterations 66
DILUPBiCGStab:  Solving for Y, Initial residual = 0.0691321, Final residual = 4.07626e-07, No Iterations 67
DILUPBiCGStab:  Solving for Y, Initial residual = 0.0666083, Final residual = 3.68313e-07, No Iterations 67
DILUPBiCGStab:  Solving for Y, Initial residual = 0.0691316, Final residual = 8.72232e-07, No Iterations 66
DILUPBiCGStab:  Solving for Y, Initial residual = 0.0666083, Final residual = 9.16971e-07, No Iterations 65
DILUPBiCGStab:  Solving for Y, Initial residual = 0.0691309, Final residual = 4.92836e-07, No Iterations 67
DILUPBiCGStab:  Solving for Y, Initial residual = 0.0666083, Final residual = 8.18278e-07, No Iterations 66
DILUPBiCGStab:  Solving for Y, Initial residual = 0.0691321, Final residual = 6.91327e-07, No Iterations 66
DILUPBiCGStab:  Solving for Y, Initial residual = 0.0666083, Final residual = 9.47281e-07, No Iterations 66
DILUPBiCGStab:  Solving for Y, Initial residual = 0.0691322, Final residual = 3.5945e-07, No Iterations 66
DILUPBiCGStab:  Solving for Y, Initial residual = 0.0666083, Final residual = 2.89261e-07, No Iterations 67
DILUPBiCGStab:  Solving for Y, Initial residual = 0.0691315, Final residual = 2.88327e-07, No Iterations 68
DILUPBiCGStab:  Solving for Y, Initial residual = 0.0666083, Final residual = 7.49441e-07, No Iterations 65
DILUPBiCGStab:  Solving for Y, Initial residual = 0.0691313, Final residual = 1.97478e-07, No Iterations 67
DILUPBiCGStab:  Solving for Y, Initial residual = 0.0666083, Final residual = 4.38606e-07, No Iterations 66
DILUPBiCGStab:  Solving for Y, Initial residual = 0.0691316, Final residual = 9.94289e-07, No Iterations 66
DILUPBiCGStab:  Solving for Y, Initial residual = 0.0666083, Final residual = 5.54743e-07, No Iterations 67
DILUPBiCGStab:  Solving for Y, Initial residual = 0.0691318, Final residual = 7.21084e-07, No Iterations 66
DILUPBiCGStab:  Solving for Y, Initial residual = 0.0666083, Final residual = 6.50245e-07, No Iterations 65
DILUPBiCGStab:  Solving for Y, Initial residual = 0.0691315, Final residual = 7.32285e-07, No Iterations 66
DILUPBiCGStab:  Solving for Ux, Initial residual = 6.72157e-05, Final residual = 7.61846e-08, No Iterations 1
DILUPBiCGStab:  Solving for Uy, Initial residual = 0.000120649, Final residual = 1.59381e-07, No Iterations 1
DILUPBiCGStab:  Solving for T, Initial residual = 6.7903e-06, Final residual = 5.99946e-08, No Iterations 1
DICPCG:  Solving for p_rgh, Initial residual = 0.000131537, Final residual = 1.31294e-06, No Iterations 46
time step continuity errors : sum local = 2.40904e-08, global = -4.89844e-09, cumulative = -1.1869e-05
ExecutionTime = 351.57 s  ClockTime = 352 s

Time = 598

DILUPBiCGStab:  Solving for Y, Initial residual = 0.0666115, Final residual = 8.01331e-07, No Iterations 66
DILUPBiCGStab:  Solving for Y, Initial residual = 0.0691366, Final residual = 8.19503e-07, No Iterations 65
DILUPBiCGStab:  Solving for Y, Initial residual = 0.0666124, Final residual = 3.70716e-07, No Iterations 67
DILUPBiCGStab:  Solving for Y, Initial residual = 0.069136, Final residual = 3.36091e-07, No Iterations 67
DILUPBiCGStab:  Solving for Y, Initial residual = 0.0666125, Final residual = 9.61162e-07, No Iterations 66
DILUPBiCGStab:  Solving for Y, Initial residual = 0.0691367, Final residual = 1.81126e-07, No Iterations 66
DILUPBiCGStab:  Solving for Y, Initial residual = 0.0666125, Final residual = 9.4015e-07, No Iterations 65
DILUPBiCGStab:  Solving for Y, Initial residual = 0.0691352, Final residual = 8.95214e-07, No Iterations 65
DILUPBiCGStab:  Solving for Y, Initial residual = 0.0666124, Final residual = 9.31323e-07, No Iterations 66
DILUPBiCGStab:  Solving for Y, Initial residual = 0.0691367, Final residual = 9.91692e-07, No Iterations 66
DILUPBiCGStab:  Solving for Y, Initial residual = 0.0666125, Final residual = 9.73041e-07, No Iterations 65
DILUPBiCGStab:  Solving for Y, Initial residual = 0.0691367, Final residual = 7.32066e-07, No Iterations 66
DILUPBiCGStab:  Solving for Y, Initial residual = 0.0666125, Final residual = 9.12719e-07, No Iterations 66
DILUPBiCGStab:  Solving for Y, Initial residual = 0.0691367, Final residual = 9.13811e-07, No Iterations 65
DILUPBiCGStab:  Solving for Y, Initial residual = 0.0666125, Final residual = 3.59195e-07, No Iterations 67
DILUPBiCGStab:  Solving for Y, Initial residual = 0.0691361, Final residual = 7.65849e-07, No Iterations 64
DILUPBiCGStab:  Solving for Y, Initial residual = 0.0666124, Final residual = 1.49877e-07, No Iterations 67
DILUPBiCGStab:  Solving for Y, Initial residual = 0.0691357, Final residual = 4.42781e-07, No Iterations 67
DILUPBiCGStab:  Solving for Y, Initial residual = 0.0666125, Final residual = 7.84809e-07, No Iterations 65
DILUPBiCGStab:  Solving for Y, Initial residual = 0.0691354, Final residual = 6.84259e-07, No Iterations 66
DILUPBiCGStab:  Solving for Y, Initial residual = 0.0666125, Final residual = 9.51749e-07, No Iterations 64
DILUPBiCGStab:  Solving for Y, Initial residual = 0.0691357, Final residual = 9.51436e-07, No Iterations 66
DILUPBiCGStab:  Solving for Y, Initial residual = 0.0666125, Final residual = 6.31485e-07, No Iterations 67
DILUPBiCGStab:  Solving for Y, Initial residual = 0.0691364, Final residual = 9.35863e-07, No Iterations 65
DILUPBiCGStab:  Solving for Y, Initial residual = 0.0666125, Final residual = 8.8129e-07, No Iterations 66
DILUPBiCGStab:  Solving for Y, Initial residual = 0.0691366, Final residual = 9.38632e-07, No Iterations 65
DILUPBiCGStab:  Solving for Y, Initial residual = 0.0666125, Final residual = 9.57111e-07, No Iterations 66
DILUPBiCGStab:  Solving for Y, Initial residual = 0.0691367, Final residual = 6.60125e-07, No Iterations 65
DILUPBiCGStab:  Solving for Y, Initial residual = 0.0666124, Final residual = 7.78556e-07, No Iterations 67
DILUPBiCGStab:  Solving for Y, Initial residual = 0.0691365, Final residual = 8.9627e-07, No Iterations 65
DILUPBiCGStab:  Solving for Y, Initial residual = 0.0666125, Final residual = 6.19019e-07, No Iterations 67
DILUPBiCGStab:  Solving for Y, Initial residual = 0.0691364, Final residual = 9.72708e-07, No Iterations 65
DILUPBiCGStab:  Solving for Y, Initial residual = 0.0666125, Final residual = 3.15859e-07, No Iterations 67
DILUPBiCGStab:  Solving for Y, Initial residual = 0.069136, Final residual = 9.99534e-07, No Iterations 65
DILUPBiCGStab:  Solving for Y, Initial residual = 0.0666125, Final residual = 7.43704e-07, No Iterations 67
DILUPBiCGStab:  Solving for Y, Initial residual = 0.0691365, Final residual = 7.26224e-07, No Iterations 67
DILUPBiCGStab:  Solving for Y, Initial residual = 0.0666124, Final residual = 5.51861e-07, No Iterations 66
DILUPBiCGStab:  Solving for Y, Initial residual = 0.0691363, Final residual = 8.20986e-07, No Iterations 65
DILUPBiCGStab:  Solving for Y, Initial residual = 0.0666124, Final residual = 6.94976e-07, No Iterations 65
DILUPBiCGStab:  Solving for Y, Initial residual = 0.0691359, Final residual = 1.20705e-07, No Iterations 68
DILUPBiCGStab:  Solving for Ux, Initial residual = 6.70421e-05, Final residual = 7.60179e-08, No Iterations 1
DILUPBiCGStab:  Solving for Uy, Initial residual = 0.000120457, Final residual = 1.59201e-07, No Iterations 1
DILUPBiCGStab:  Solving for T, Initial residual = 6.75139e-06, Final residual = 5.94058e-08, No Iterations 1
DICPCG:  Solving for p_rgh, Initial residual = 0.000130204, Final residual = 1.15684e-06, No Iterations 47
time step continuity errors : sum local = 2.1226e-08, global = -4.92246e-09, cumulative = -1.18739e-05
ExecutionTime = 352.15 s  ClockTime = 352 s

Time = 599

DILUPBiCGStab:  Solving for Y, Initial residual = 0.0666156, Final residual = 2.33439e-07, No Iterations 67
DILUPBiCGStab:  Solving for Y, Initial residual = 0.0691405, Final residual = 4.72252e-07, No Iterations 68
DILUPBiCGStab:  Solving for Y, Initial residual = 0.0666167, Final residual = 6.23313e-07, No Iterations 67
DILUPBiCGStab:  Solving for Y, Initial residual = 0.0691409, Final residual = 2.64752e-07, No Iterations 67
DILUPBiCGStab:  Solving for Y, Initial residual = 0.0666167, Final residual = 6.99837e-07, No Iterations 67
DILUPBiCGStab:  Solving for Y, Initial residual = 0.069141, Final residual = 9.82427e-07, No Iterations 66
DILUPBiCGStab:  Solving for Y, Initial residual = 0.0666167, Final residual = 4.63176e-07, No Iterations 67
DILUPBiCGStab:  Solving for Y, Initial residual = 0.0691407, Final residual = 2.73821e-07, No Iterations 68
DILUPBiCGStab:  Solving for Y, Initial residual = 0.0666167, Final residual = 7.519e-07, No Iterations 66
DILUPBiCGStab:  Solving for Y, Initial residual = 0.069141, Final residual = 9.83823e-07, No Iterations 66
DILUPBiCGStab:  Solving for Y, Initial residual = 0.0666168, Final residual = 9.3825e-07, No Iterations 65
DILUPBiCGStab:  Solving for Y, Initial residual = 0.0691411, Final residual = 9.34451e-07, No Iterations 66
DILUPBiCGStab:  Solving for Y, Initial residual = 0.0666167, Final residual = 8.56961e-07, No Iterations 65
DILUPBiCGStab:  Solving for Y, Initial residual = 0.0691401, Final residual = 9.3061e-07, No Iterations 66
DILUPBiCGStab:  Solving for Y, Initial residual = 0.0666167, Final residual = 8.40532e-07, No Iterations 66
DILUPBiCGStab:  Solving for Y, Initial residual = 0.0691412, Final residual = 5.00989e-07, No Iterations 67
DILUPBiCGStab:  Solving for Y, Initial residual = 0.0666167, Final residual = 6.94553e-07, No Iterations 65
DILUPBiCGStab:  Solving for Y, Initial residual = 0.0691406, Final residual = 7.68835e-07, No Iterations 67
DILUPBiCGStab:  Solving for Y, Initial residual = 0.0666167, Final residual = 5.30783e-07, No Iterations 67
DILUPBiCGStab:  Solving for Y, Initial residual = 0.0691408, Final residual = 8.26821e-07, No Iterations 67
DILUPBiCGStab:  Solving for Y, Initial residual = 0.0666167, Final residual = 9.48044e-07, No Iterations 65
DILUPBiCGStab:  Solving for Y, Initial residual = 0.0691412, Final residual = 8.6817e-07, No Iterations 65
DILUPBiCGStab:  Solving for Y, Initial residual = 0.0666166, Final residual = 8.32384e-07, No Iterations 66
DILUPBiCGStab:  Solving for Y, Initial residual = 0.0691411, Final residual = 9.52317e-07, No Iterations 66
DILUPBiCGStab:  Solving for Y, Initial residual = 0.0666167, Final residual = 8.90871e-07, No Iterations 66
DILUPBiCGStab:  Solving for Y, Initial residual = 0.0691412, Final residual = 7.80988e-08, No Iterations 69
DILUPBiCGStab:  Solving for Y, Initial residual = 0.0666167, Final residual = 7.25412e-07, No Iterations 67
DILUPBiCGStab:  Solving for Y, Initial residual = 0.069141, Final residual = 9.43468e-07, No Iterations 66
DILUPBiCGStab:  Solving for Y, Initial residual = 0.0666167, Final residual = 9.13481e-07, No Iterations 65
DILUPBiCGStab:  Solving for Y, Initial residual = 0.0691412, Final residual = 8.42747e-07, No Iterations 66
DILUPBiCGStab:  Solving for Y, Initial residual = 0.0666167, Final residual = 9.9703e-07, No Iterations 66
DILUPBiCGStab:  Solving for Y, Initial residual = 0.0691413, Final residual = 4.61353e-07, No Iterations 66
DILUPBiCGStab:  Solving for Y, Initial residual = 0.0666167, Final residual = 4.94578e-07, No Iterations 66
DILUPBiCGStab:  Solving for Y, Initial residual = 0.0691398, Final residual = 8.60955e-07, No Iterations 65
DILUPBiCGStab:  Solving for Y, Initial residual = 0.0666167, Final residual = 9.75937e-07, No Iterations 66
DILUPBiCGStab:  Solving for Y, Initial residual = 0.0691413, Final residual = 8.02964e-07, No Iterations 65
DILUPBiCGStab:  Solving for Y, Initial residual = 0.0666167, Final residual = 5.33113e-07, No Iterations 66
DILUPBiCGStab:  Solving for Y, Initial residual = 0.0691407, Final residual = 9.23876e-07, No Iterations 66
DILUPBiCGStab:  Solving for Y, Initial residual = 0.0666167, Final residual = 7.65575e-07, No Iterations 67
DILUPBiCGStab:  Solving for Y, Initial residual = 0.0691411, Final residual = 9.22755e-07, No Iterations 66
DILUPBiCGStab:  Solving for Ux, Initial residual = 6.6871e-05, Final residual = 7.58467e-08, No Iterations 1
DILUPBiCGStab:  Solving for Uy, Initial residual = 0.000120254, Final residual = 1.59027e-07, No Iterations 1
DILUPBiCGStab:  Solving for T, Initial residual = 6.71484e-06, Final residual = 5.88874e-08, No Iterations 1
DICPCG:  Solving for p_rgh, Initial residual = 0.000128918, Final residual = 1.14672e-06, No Iterations 47
time step continuity errors : sum local = 2.10403e-08, global = -4.8529e-09, cumulative = -1.18787e-05
ExecutionTime = 352.73 s  ClockTime = 353 s

Time = 600

DILUPBiCGStab:  Solving for Y, Initial residual = 0.0666199, Final residual = 5.58224e-07, No Iterations 66
DILUPBiCGStab:  Solving for Y, Initial residual = 0.069145, Final residual = 9.74059e-07, No Iterations 66
DILUPBiCGStab:  Solving for Y, Initial residual = 0.066621, Final residual = 8.60989e-07, No Iterations 65
DILUPBiCGStab:  Solving for Y, Initial residual = 0.0691455, Final residual = 2.12817e-07, No Iterations 68
DILUPBiCGStab:  Solving for Y, Initial residual = 0.0666209, Final residual = 7.41501e-07, No Iterations 65
DILUPBiCGStab:  Solving for Y, Initial residual = 0.0691453, Final residual = 1.47015e-07, No Iterations 68
DILUPBiCGStab:  Solving for Y, Initial residual = 0.0666209, Final residual = 6.62301e-07, No Iterations 66
DILUPBiCGStab:  Solving for Y, Initial residual = 0.0691455, Final residual = 9.82769e-07, No Iterations 66
DILUPBiCGStab:  Solving for Y, Initial residual = 0.066621, Final residual = 7.78083e-07, No Iterations 65
DILUPBiCGStab:  Solving for Y, Initial residual = 0.0691453, Final residual = 3.20579e-07, No Iterations 67
DILUPBiCGStab:  Solving for Y, Initial residual = 0.0666209, Final residual = 9.14406e-07, No Iterations 66
DILUPBiCGStab:  Solving for Y, Initial residual = 0.0691458, Final residual = 3.43651e-07, No Iterations 68
DILUPBiCGStab:  Solving for Y, Initial residual = 0.066621, Final residual = 9.05634e-07, No Iterations 64
DILUPBiCGStab:  Solving for Y, Initial residual = 0.0691451, Final residual = 8.47165e-07, No Iterations 67
DILUPBiCGStab:  Solving for Y, Initial residual = 0.066621, Final residual = 8.28807e-07, No Iterations 66
DILUPBiCGStab:  Solving for Y, Initial residual = 0.0691443, Final residual = 6.44613e-07, No Iterations 67
DILUPBiCGStab:  Solving for Y, Initial residual = 0.0666209, Final residual = 7.56884e-07, No Iterations 66
DILUPBiCGStab:  Solving for Y, Initial residual = 0.0691446, Final residual = 7.05552e-07, No Iterations 67
DILUPBiCGStab:  Solving for Y, Initial residual = 0.0666209, Final residual = 8.59962e-07, No Iterations 66
DILUPBiCGStab:  Solving for Y, Initial residual = 0.0691457, Final residual = 8.46478e-07, No Iterations 64
DILUPBiCGStab:  Solving for Y, Initial residual = 0.0666209, Final residual = 9.08617e-07, No Iterations 66
DILUPBiCGStab:  Solving for Y, Initial residual = 0.0691458, Final residual = 9.75033e-07, No Iterations 66
DILUPBiCGStab:  Solving for Y, Initial residual = 0.066621, Final residual = 9.04011e-07, No Iterations 65
DILUPBiCGStab:  Solving for Y, Initial residual = 0.0691447, Final residual = 6.83284e-07, No Iterations 65
DILUPBiCGStab:  Solving for Y, Initial residual = 0.0666209, Final residual = 9.24659e-07, No Iterations 66
DILUPBiCGStab:  Solving for Y, Initial residual = 0.0691458, Final residual = 5.80414e-07, No Iterations 67
DILUPBiCGStab:  Solving for Y, Initial residual = 0.066621, Final residual = 7.01401e-07, No Iterations 66
DILUPBiCGStab:  Solving for Y, Initial residual = 0.0691456, Final residual = 7.15315e-07, No Iterations 67
DILUPBiCGStab:  Solving for Y, Initial residual = 0.066621, Final residual = 8.93731e-07, No Iterations 68
DILUPBiCGStab:  Solving for Y, Initial residual = 0.0691458, Final residual = 5.65373e-07, No Iterations 66
DILUPBiCGStab:  Solving for Y, Initial residual = 0.066621, Final residual = 9.70994e-07, No Iterations 65
DILUPBiCGStab:  Solving for Y, Initial residual = 0.0691458, Final residual = 9.92196e-07, No Iterations 66
DILUPBiCGStab:  Solving for Y, Initial residual = 0.066621, Final residual = 2.96602e-07, No Iterations 67
DILUPBiCGStab:  Solving for Y, Initial residual = 0.0691451, Final residual = 8.64359e-07, No Iterations 67
DILUPBiCGStab:  Solving for Y, Initial residual = 0.0666209, Final residual = 9.8481e-07, No Iterations 66
DILUPBiCGStab:  Solving for Y, Initial residual = 0.0691459, Final residual = 4.8977e-07, No Iterations 67
DILUPBiCGStab:  Solving for Y, Initial residual = 0.066621, Final residual = 6.91298e-07, No Iterations 66
DILUPBiCGStab:  Solving for Y, Initial residual = 0.0691445, Final residual = 9.26784e-07, No Iterations 66
DILUPBiCGStab:  Solving for Y, Initial residual = 0.0666209, Final residual = 9.38809e-07, No Iterations 66
DILUPBiCGStab:  Solving for Y, Initial residual = 0.0691458, Final residual = 7.87498e-07, No Iterations 65
DILUPBiCGStab:  Solving for Ux, Initial residual = 6.6697e-05, Final residual = 7.56666e-08, No Iterations 1
DILUPBiCGStab:  Solving for Uy, Initial residual = 0.00012004, Final residual = 1.58848e-07, No Iterations 1
DILUPBiCGStab:  Solving for T, Initial residual = 6.68058e-06, Final residual = 5.84298e-08, No Iterations 1
DICPCG:  Solving for p_rgh, Initial residual = 0.000127631, Final residual = 1.13327e-06, No Iterations 47
time step continuity errors : sum local = 2.07934e-08, global = -4.79259e-09, cumulative = -1.18835e-05
ExecutionTime = 353.37 s  ClockTime = 353 s

forces forces write:
    sum of forces:
        pressure : (0.00049988 0.0647442 3.09596e-22)
        viscous  : (0.000467353 -1.19132e-05 -9.75752e-25)
        porous   : (0 0 0)
    sum of moments:
        pressure : (-0.0339907 0.000262437 0.0280296)
        viscous  : (6.25443e-06 0.000245361 -3.76742e-05)
        porous   : (0 0 0)

forceCoeffs forceCoeffs write:
    Cm    = 0.00050152
    Cd    = 1.73296e-05
    Cl    = 0.00115978
    Cl(f) = 0.00108141
    Cl(r) = 7.83714e-05

End

