/*---------------------------------------------------------------------------*\
| =========                 |                                                 |
| \\      /  F ield         | OpenFOAM: The Open Source CFD Toolbox           |
|  \\    /   O peration     | Version:  5.x                                   |
|   \\  /    A nd           | Web:      www.OpenFOAM.org                      |
|    \\/     M anipulation  |                                                 |
\*---------------------------------------------------------------------------*/
Build  : 5.x-197d9d3bf20a
Exec   : massBoussinesqSimpleFoam
Date   : Oct 08 2020
Time   : 12:00:13
Host   : "ubuntu"
PID    : 92087
I/O    : uncollated
Case   : /home/sid/OpenFOAM/OpenFOAM-5.0/applications/solvers/testSolvers/massBoussinesqSimpleFoam/tutorial/64A215/268K
nProcs : 1
sigFpe : Enabling floating point exception trapping (FOAM_SIGFPE).
fileModificationChecking : Monitoring run-time modified files using timeStampMaster (fileModificationSkew 10)
allowSystemOperations : Allowing user-supplied system call operations

// * * * * * * * * * * * * * * * * * * * * * * * * * * * * * * * * * * * * * //
Create time

Create mesh for time = 0


SIMPLE: convergence criteria
    field p_rgh	 tolerance 1e-05
    field U	 tolerance 1e-05
    field T	 tolerance 1e-05
    field "(k|epsilon|omega)"	 tolerance 1e-05

Reading thermophysical properties

Reading field T

--> FOAM Warning : 
    From function groovyBCFvPatchField<Type>::groovyBCFvPatchField(const fvPatch& p,const DimensionedField<Type, volMesh>& iF,const dictionary& dict)
    in file groovyBCFvPatchField.C at line 136
    No value defined for T on wing therefore using the internal field next to the patch
Reading field p_rgh

Reading field U

--> FOAM Warning : 
    From function groovyBCFvPatchField<Type>::groovyBCFvPatchField(const fvPatch& p,const DimensionedField<Type, volMesh>& iF,const dictionary& dict)
    in file groovyBCFvPatchField.C at line 136
    No value defined for Y on wing therefore using the internal field next to the patch
Reading/calculating face flux field phi

Selecting incompressible transport model Newtonian
Creating turbulence model

Selecting turbulence model type laminar
Selecting laminar stress model Stokes
Reading field alphat


Reading g

Reading hRef
Calculating field g.h

No MRF models present

Radiation model not active: radiationProperties not found
Selecting radiationModel none
No finite volume options present


Starting time loop

forces forces:
    Not including porosity effects
forces forceCoeffs:
    Not including porosity effects
forceCoeffs forceCoeffs:
    Not including porosity effects
Time = 1

swak4Foam: Allocating new repository for sampledGlobalVariables
DILUPBiCGStab:  Solving for Y, Initial residual = 1, Final residual = 1.6164e-08, No Iterations 47
DILUPBiCGStab:  Solving for Y, Initial residual = 0.0207188, Final residual = 2.62288e-07, No Iterations 82
DILUPBiCGStab:  Solving for Y, Initial residual = 0.0204693, Final residual = 2.45891e-07, No Iterations 76
DILUPBiCGStab:  Solving for Y, Initial residual = 0.0207188, Final residual = 3.13176e-07, No Iterations 81
DILUPBiCGStab:  Solving for Y, Initial residual = 0.0204644, Final residual = 1.85402e-07, No Iterations 78
DILUPBiCGStab:  Solving for Y, Initial residual = 0.0207187, Final residual = 3.68493e-07, No Iterations 80
DILUPBiCGStab:  Solving for Y, Initial residual = 0.0204642, Final residual = 7.95718e-07, No Iterations 78
DILUPBiCGStab:  Solving for Y, Initial residual = 0.0207183, Final residual = 8.39596e-07, No Iterations 81
DILUPBiCGStab:  Solving for Y, Initial residual = 0.0204645, Final residual = 5.56366e-07, No Iterations 80
DILUPBiCGStab:  Solving for Y, Initial residual = 0.0207185, Final residual = 6.46033e-07, No Iterations 82
DILUPBiCGStab:  Solving for Y, Initial residual = 0.0204645, Final residual = 1.43953e-07, No Iterations 83
DILUPBiCGStab:  Solving for Y, Initial residual = 0.0207187, Final residual = 4.25352e-07, No Iterations 104
DILUPBiCGStab:  Solving for Y, Initial residual = 0.0204644, Final residual = 8.40724e-07, No Iterations 77
DILUPBiCGStab:  Solving for Y, Initial residual = 0.0207191, Final residual = 6.21704e-07, No Iterations 75
DILUPBiCGStab:  Solving for Y, Initial residual = 0.0204644, Final residual = 1.65728e-07, No Iterations 84
DILUPBiCGStab:  Solving for Y, Initial residual = 0.0207188, Final residual = 5.8642e-07, No Iterations 80
DILUPBiCGStab:  Solving for Y, Initial residual = 0.0204644, Final residual = 4.7225e-07, No Iterations 78
DILUPBiCGStab:  Solving for Y, Initial residual = 0.020719, Final residual = 3.21083e-07, No Iterations 80
DILUPBiCGStab:  Solving for Y, Initial residual = 0.0204642, Final residual = 9.27461e-07, No Iterations 81
DILUPBiCGStab:  Solving for Y, Initial residual = 0.0207192, Final residual = 7.06376e-07, No Iterations 85
DILUPBiCGStab:  Solving for Y, Initial residual = 0.0204645, Final residual = 9.51992e-07, No Iterations 76
DILUPBiCGStab:  Solving for Y, Initial residual = 0.0207192, Final residual = 5.87317e-07, No Iterations 301
DILUPBiCGStab:  Solving for Y, Initial residual = 0.0204642, Final residual = 4.93694e-07, No Iterations 85
DILUPBiCGStab:  Solving for Y, Initial residual = 0.020719, Final residual = 2.68221e-07, No Iterations 81
DILUPBiCGStab:  Solving for Y, Initial residual = 0.0204644, Final residual = 6.2038e-07, No Iterations 80
DILUPBiCGStab:  Solving for Y, Initial residual = 0.0207189, Final residual = 3.69176e-07, No Iterations 80
DILUPBiCGStab:  Solving for Y, Initial residual = 0.0204644, Final residual = 1.23573e-07, No Iterations 79
DILUPBiCGStab:  Solving for Y, Initial residual = 0.0207187, Final residual = 7.74451e-07, No Iterations 90
DILUPBiCGStab:  Solving for Y, Initial residual = 0.0204645, Final residual = 4.97899e-07, No Iterations 138
DILUPBiCGStab:  Solving for Y, Initial residual = 0.0207185, Final residual = 6.4172e-07, No Iterations 78
DILUPBiCGStab:  Solving for Y, Initial residual = 0.0204645, Final residual = 8.60537e-07, No Iterations 79
DILUPBiCGStab:  Solving for Y, Initial residual = 0.0207192, Final residual = 4.61456e-07, No Iterations 84
DILUPBiCGStab:  Solving for Y, Initial residual = 0.0204642, Final residual = 6.01458e-07, No Iterations 83
DILUPBiCGStab:  Solving for Y, Initial residual = 0.020719, Final residual = 4.82782e-07, No Iterations 79
DILUPBiCGStab:  Solving for Y, Initial residual = 0.0204642, Final residual = 6.80553e-07, No Iterations 81
DILUPBiCGStab:  Solving for Y, Initial residual = 0.0207191, Final residual = 4.88668e-07, No Iterations 114
DILUPBiCGStab:  Solving for Y, Initial residual = 0.0204644, Final residual = 7.95069e-07, No Iterations 81
DILUPBiCGStab:  Solving for Y, Initial residual = 0.0207183, Final residual = 3.92042e-07, No Iterations 77
DILUPBiCGStab:  Solving for Y, Initial residual = 0.0204644, Final residual = 4.06056e-07, No Iterations 89
DILUPBiCGStab:  Solving for Y, Initial residual = 0.0207189, Final residual = 2.67097e-07, No Iterations 82
DILUPBiCGStab:  Solving for Ux, Initial residual = 1, Final residual = 8.39775e-07, No Iterations 2
DILUPBiCGStab:  Solving for Uy, Initial residual = 0.999915, Final residual = 6.85058e-08, No Iterations 3
DILUPBiCGStab:  Solving for T, Initial residual = 1, Final residual = 1.24336e-07, No Iterations 4
DICPCG:  Solving for p_rgh, Initial residual = 1, Final residual = 0.00814236, No Iterations 68
time step continuity errors : sum local = 0.00404552, global = 0.00019134, cumulative = 0.00019134
ExecutionTime = 1.02 s  ClockTime = 2 s

Time = 2

DILUPBiCGStab:  Solving for Y, Initial residual = 0.0915202, Final residual = 9.34545e-07, No Iterations 58
DILUPBiCGStab:  Solving for Y, Initial residual = 0.0300728, Final residual = 4.92256e-07, No Iterations 68
DILUPBiCGStab:  Solving for Y, Initial residual = 0.0295282, Final residual = 3.42184e-07, No Iterations 67
DILUPBiCGStab:  Solving for Y, Initial residual = 0.0300717, Final residual = 6.30514e-07, No Iterations 68
DILUPBiCGStab:  Solving for Y, Initial residual = 0.0295211, Final residual = 8.59081e-07, No Iterations 68
DILUPBiCGStab:  Solving for Y, Initial residual = 0.0300724, Final residual = 1.63809e-07, No Iterations 69
DILUPBiCGStab:  Solving for Y, Initial residual = 0.0295209, Final residual = 4.10189e-07, No Iterations 67
DILUPBiCGStab:  Solving for Y, Initial residual = 0.0300716, Final residual = 7.65288e-07, No Iterations 68
DILUPBiCGStab:  Solving for Y, Initial residual = 0.0295212, Final residual = 5.24973e-07, No Iterations 68
DILUPBiCGStab:  Solving for Y, Initial residual = 0.030072, Final residual = 4.64512e-07, No Iterations 67
DILUPBiCGStab:  Solving for Y, Initial residual = 0.029521, Final residual = 2.79619e-07, No Iterations 69
DILUPBiCGStab:  Solving for Y, Initial residual = 0.0300718, Final residual = 3.67589e-07, No Iterations 68
DILUPBiCGStab:  Solving for Y, Initial residual = 0.029521, Final residual = 4.43927e-07, No Iterations 69
DILUPBiCGStab:  Solving for Y, Initial residual = 0.0300719, Final residual = 8.22678e-07, No Iterations 68
DILUPBiCGStab:  Solving for Y, Initial residual = 0.0295212, Final residual = 4.8118e-07, No Iterations 68
DILUPBiCGStab:  Solving for Y, Initial residual = 0.030072, Final residual = 2.43819e-07, No Iterations 68
DILUPBiCGStab:  Solving for Y, Initial residual = 0.0295209, Final residual = 6.54087e-07, No Iterations 67
DILUPBiCGStab:  Solving for Y, Initial residual = 0.0300721, Final residual = 1.631e-07, No Iterations 69
DILUPBiCGStab:  Solving for Y, Initial residual = 0.0295207, Final residual = 6.97051e-07, No Iterations 68
DILUPBiCGStab:  Solving for Y, Initial residual = 0.0300722, Final residual = 7.07371e-07, No Iterations 68
DILUPBiCGStab:  Solving for Y, Initial residual = 0.0295211, Final residual = 8.63603e-07, No Iterations 67
DILUPBiCGStab:  Solving for Y, Initial residual = 0.0300724, Final residual = 6.97725e-07, No Iterations 68
DILUPBiCGStab:  Solving for Y, Initial residual = 0.0295212, Final residual = 4.7957e-07, No Iterations 68
DILUPBiCGStab:  Solving for Y, Initial residual = 0.030072, Final residual = 8.63851e-07, No Iterations 67
DILUPBiCGStab:  Solving for Y, Initial residual = 0.0295212, Final residual = 8.76674e-07, No Iterations 67
DILUPBiCGStab:  Solving for Y, Initial residual = 0.0300724, Final residual = 2.41476e-07, No Iterations 68
DILUPBiCGStab:  Solving for Y, Initial residual = 0.0295209, Final residual = 6.08127e-07, No Iterations 67
DILUPBiCGStab:  Solving for Y, Initial residual = 0.0300721, Final residual = 3.94969e-07, No Iterations 67
DILUPBiCGStab:  Solving for Y, Initial residual = 0.0295209, Final residual = 1.40299e-07, No Iterations 68
DILUPBiCGStab:  Solving for Y, Initial residual = 0.0300716, Final residual = 5.27742e-07, No Iterations 67
DILUPBiCGStab:  Solving for Y, Initial residual = 0.029521, Final residual = 6.24234e-07, No Iterations 68
DILUPBiCGStab:  Solving for Y, Initial residual = 0.0300721, Final residual = 5.06132e-07, No Iterations 68
DILUPBiCGStab:  Solving for Y, Initial residual = 0.0295211, Final residual = 8.22175e-07, No Iterations 68
DILUPBiCGStab:  Solving for Y, Initial residual = 0.0300723, Final residual = 6.11255e-07, No Iterations 68
DILUPBiCGStab:  Solving for Y, Initial residual = 0.0295211, Final residual = 6.48109e-07, No Iterations 68
DILUPBiCGStab:  Solving for Y, Initial residual = 0.0300721, Final residual = 7.58896e-07, No Iterations 68
DILUPBiCGStab:  Solving for Y, Initial residual = 0.0295212, Final residual = 4.58541e-07, No Iterations 68
DILUPBiCGStab:  Solving for Y, Initial residual = 0.030072, Final residual = 1.66093e-07, No Iterations 68
DILUPBiCGStab:  Solving for Y, Initial residual = 0.0295208, Final residual = 6.87781e-07, No Iterations 68
DILUPBiCGStab:  Solving for Y, Initial residual = 0.0300722, Final residual = 7.95403e-07, No Iterations 68
DILUPBiCGStab:  Solving for Ux, Initial residual = 0.400399, Final residual = 1.60776e-07, No Iterations 3
DILUPBiCGStab:  Solving for Uy, Initial residual = 0.406577, Final residual = 4.22687e-07, No Iterations 3
DILUPBiCGStab:  Solving for T, Initial residual = 0.0302327, Final residual = 1.73119e-07, No Iterations 3
DICPCG:  Solving for p_rgh, Initial residual = 0.637762, Final residual = 0.00587383, No Iterations 58
time step continuity errors : sum local = 0.0159183, global = 8.69198e-05, cumulative = 0.00027826
ExecutionTime = 1.69 s  ClockTime = 2 s

Time = 3

DILUPBiCGStab:  Solving for Y, Initial residual = 0.0411719, Final residual = 1.97696e-08, No Iterations 71
DILUPBiCGStab:  Solving for Y, Initial residual = 0.0293188, Final residual = 4.01932e-07, No Iterations 68
DILUPBiCGStab:  Solving for Y, Initial residual = 0.0287951, Final residual = 9.84628e-07, No Iterations 67
DILUPBiCGStab:  Solving for Y, Initial residual = 0.0293198, Final residual = 5.02411e-07, No Iterations 68
DILUPBiCGStab:  Solving for Y, Initial residual = 0.0287947, Final residual = 5.67317e-07, No Iterations 68
DILUPBiCGStab:  Solving for Y, Initial residual = 0.0293193, Final residual = 9.80777e-07, No Iterations 68
DILUPBiCGStab:  Solving for Y, Initial residual = 0.028795, Final residual = 3.01001e-07, No Iterations 69
DILUPBiCGStab:  Solving for Y, Initial residual = 0.0293191, Final residual = 9.47024e-07, No Iterations 68
DILUPBiCGStab:  Solving for Y, Initial residual = 0.028795, Final residual = 4.71223e-07, No Iterations 69
DILUPBiCGStab:  Solving for Y, Initial residual = 0.0293192, Final residual = 8.71482e-07, No Iterations 68
DILUPBiCGStab:  Solving for Y, Initial residual = 0.0287949, Final residual = 6.3843e-07, No Iterations 68
DILUPBiCGStab:  Solving for Y, Initial residual = 0.0293194, Final residual = 4.5971e-07, No Iterations 68
DILUPBiCGStab:  Solving for Y, Initial residual = 0.0287947, Final residual = 6.36571e-07, No Iterations 68
DILUPBiCGStab:  Solving for Y, Initial residual = 0.0293194, Final residual = 3.0522e-07, No Iterations 69
DILUPBiCGStab:  Solving for Y, Initial residual = 0.0287947, Final residual = 6.63229e-07, No Iterations 68
DILUPBiCGStab:  Solving for Y, Initial residual = 0.0293194, Final residual = 3.87961e-07, No Iterations 69
DILUPBiCGStab:  Solving for Y, Initial residual = 0.0287947, Final residual = 6.84367e-07, No Iterations 68
DILUPBiCGStab:  Solving for Y, Initial residual = 0.0293194, Final residual = 7.88308e-07, No Iterations 67
DILUPBiCGStab:  Solving for Y, Initial residual = 0.0287949, Final residual = 1.73992e-07, No Iterations 68
DILUPBiCGStab:  Solving for Y, Initial residual = 0.0293187, Final residual = 4.36075e-07, No Iterations 68
DILUPBiCGStab:  Solving for Y, Initial residual = 0.0287943, Final residual = 9.20523e-08, No Iterations 69
DILUPBiCGStab:  Solving for Y, Initial residual = 0.0293187, Final residual = 2.49092e-07, No Iterations 69
DILUPBiCGStab:  Solving for Y, Initial residual = 0.0287946, Final residual = 4.68113e-07, No Iterations 68
DILUPBiCGStab:  Solving for Y, Initial residual = 0.0293192, Final residual = 1.56359e-07, No Iterations 70
DILUPBiCGStab:  Solving for Y, Initial residual = 0.0287946, Final residual = 5.82606e-07, No Iterations 68
DILUPBiCGStab:  Solving for Y, Initial residual = 0.0293193, Final residual = 3.30733e-07, No Iterations 68
DILUPBiCGStab:  Solving for Y, Initial residual = 0.0287947, Final residual = 2.0369e-07, No Iterations 68
DILUPBiCGStab:  Solving for Y, Initial residual = 0.0293187, Final residual = 8.9271e-07, No Iterations 68
DILUPBiCGStab:  Solving for Y, Initial residual = 0.0287949, Final residual = 9.18743e-07, No Iterations 68
DILUPBiCGStab:  Solving for Y, Initial residual = 0.0293197, Final residual = 2.79807e-07, No Iterations 69
DILUPBiCGStab:  Solving for Y, Initial residual = 0.0287946, Final residual = 4.48529e-07, No Iterations 68
DILUPBiCGStab:  Solving for Y, Initial residual = 0.0293192, Final residual = 8.71953e-07, No Iterations 68
DILUPBiCGStab:  Solving for Y, Initial residual = 0.0287949, Final residual = 4.01085e-07, No Iterations 69
DILUPBiCGStab:  Solving for Y, Initial residual = 0.0293192, Final residual = 4.17643e-07, No Iterations 68
DILUPBiCGStab:  Solving for Y, Initial residual = 0.0287947, Final residual = 2.69825e-07, No Iterations 68
DILUPBiCGStab:  Solving for Y, Initial residual = 0.029319, Final residual = 9.81177e-07, No Iterations 68
DILUPBiCGStab:  Solving for Y, Initial residual = 0.028795, Final residual = 8.85652e-07, No Iterations 67
DILUPBiCGStab:  Solving for Y, Initial residual = 0.0293196, Final residual = 3.13845e-07, No Iterations 69
DILUPBiCGStab:  Solving for Y, Initial residual = 0.0287947, Final residual = 3.52409e-07, No Iterations 69
DILUPBiCGStab:  Solving for Y, Initial residual = 0.0293191, Final residual = 2.87721e-07, No Iterations 69
DILUPBiCGStab:  Solving for Ux, Initial residual = 0.0981137, Final residual = 3.27388e-07, No Iterations 2
DILUPBiCGStab:  Solving for Uy, Initial residual = 0.11028, Final residual = 3.35361e-07, No Iterations 2
DILUPBiCGStab:  Solving for T, Initial residual = 0.0150724, Final residual = 9.56323e-07, No Iterations 2
DICPCG:  Solving for p_rgh, Initial residual = 0.247987, Final residual = 0.00216063, No Iterations 60
time step continuity errors : sum local = 0.00699923, global = 5.73165e-05, cumulative = 0.000335576
ExecutionTime = 2.53 s  ClockTime = 3 s

Time = 4

DILUPBiCGStab:  Solving for Y, Initial residual = 0.0359566, Final residual = 1.15152e-07, No Iterations 61
DILUPBiCGStab:  Solving for Y, Initial residual = 0.0293215, Final residual = 4.65008e-07, No Iterations 68
DILUPBiCGStab:  Solving for Y, Initial residual = 0.0287976, Final residual = 5.08835e-07, No Iterations 68
DILUPBiCGStab:  Solving for Y, Initial residual = 0.0293219, Final residual = 7.99201e-07, No Iterations 68
DILUPBiCGStab:  Solving for Y, Initial residual = 0.0287977, Final residual = 7.32038e-07, No Iterations 67
DILUPBiCGStab:  Solving for Y, Initial residual = 0.0293208, Final residual = 2.90092e-07, No Iterations 69
DILUPBiCGStab:  Solving for Y, Initial residual = 0.0287975, Final residual = 3.32978e-07, No Iterations 69
DILUPBiCGStab:  Solving for Y, Initial residual = 0.0293217, Final residual = 9.61169e-07, No Iterations 67
DILUPBiCGStab:  Solving for Y, Initial residual = 0.0287978, Final residual = 6.27118e-07, No Iterations 68
DILUPBiCGStab:  Solving for Y, Initial residual = 0.029322, Final residual = 4.62476e-07, No Iterations 69
DILUPBiCGStab:  Solving for Y, Initial residual = 0.0287976, Final residual = 5.18015e-07, No Iterations 68
DILUPBiCGStab:  Solving for Y, Initial residual = 0.0293219, Final residual = 7.23319e-07, No Iterations 68
DILUPBiCGStab:  Solving for Y, Initial residual = 0.0287977, Final residual = 4.53032e-07, No Iterations 68
DILUPBiCGStab:  Solving for Y, Initial residual = 0.0293219, Final residual = 3.10692e-07, No Iterations 69
DILUPBiCGStab:  Solving for Y, Initial residual = 0.0287975, Final residual = 5.93572e-07, No Iterations 68
DILUPBiCGStab:  Solving for Y, Initial residual = 0.029322, Final residual = 1.75836e-07, No Iterations 70
DILUPBiCGStab:  Solving for Y, Initial residual = 0.0287974, Final residual = 3.96892e-07, No Iterations 68
DILUPBiCGStab:  Solving for Y, Initial residual = 0.0293218, Final residual = 5.97336e-07, No Iterations 68
DILUPBiCGStab:  Solving for Y, Initial residual = 0.0287976, Final residual = 1.68818e-07, No Iterations 68
DILUPBiCGStab:  Solving for Y, Initial residual = 0.0293213, Final residual = 3.55609e-07, No Iterations 68
DILUPBiCGStab:  Solving for Y, Initial residual = 0.0287975, Final residual = 6.46873e-07, No Iterations 68
DILUPBiCGStab:  Solving for Y, Initial residual = 0.029322, Final residual = 7.11206e-07, No Iterations 68
DILUPBiCGStab:  Solving for Y, Initial residual = 0.0287977, Final residual = 3.9793e-07, No Iterations 67
DILUPBiCGStab:  Solving for Y, Initial residual = 0.0293216, Final residual = 5.4255e-07, No Iterations 68
DILUPBiCGStab:  Solving for Y, Initial residual = 0.0287976, Final residual = 2.71152e-07, No Iterations 67
DILUPBiCGStab:  Solving for Y, Initial residual = 0.0293215, Final residual = 1.55164e-07, No Iterations 69
DILUPBiCGStab:  Solving for Y, Initial residual = 0.0287974, Final residual = 8.52371e-07, No Iterations 68
DILUPBiCGStab:  Solving for Y, Initial residual = 0.0293222, Final residual = 8.04008e-07, No Iterations 68
DILUPBiCGStab:  Solving for Y, Initial residual = 0.0287977, Final residual = 3.18077e-07, No Iterations 68
DILUPBiCGStab:  Solving for Y, Initial residual = 0.0293217, Final residual = 8.02224e-07, No Iterations 68
DILUPBiCGStab:  Solving for Y, Initial residual = 0.0287977, Final residual = 9.92944e-07, No Iterations 67
DILUPBiCGStab:  Solving for Y, Initial residual = 0.0293224, Final residual = 8.53946e-07, No Iterations 68
DILUPBiCGStab:  Solving for Y, Initial residual = 0.0287978, Final residual = 5.44273e-07, No Iterations 68
DILUPBiCGStab:  Solving for Y, Initial residual = 0.0293219, Final residual = 8.11428e-07, No Iterations 68
DILUPBiCGStab:  Solving for Y, Initial residual = 0.0287969, Final residual = 7.67323e-07, No Iterations 67
DILUPBiCGStab:  Solving for Y, Initial residual = 0.0293222, Final residual = 5.61474e-07, No Iterations 68
DILUPBiCGStab:  Solving for Y, Initial residual = 0.0287976, Final residual = 1.93575e-07, No Iterations 68
DILUPBiCGStab:  Solving for Y, Initial residual = 0.0293213, Final residual = 3.64723e-07, No Iterations 68
DILUPBiCGStab:  Solving for Y, Initial residual = 0.0287975, Final residual = 2.92697e-07, No Iterations 69
DILUPBiCGStab:  Solving for Y, Initial residual = 0.0293217, Final residual = 4.19242e-07, No Iterations 68
DILUPBiCGStab:  Solving for Ux, Initial residual = 0.0859787, Final residual = 2.38928e-07, No Iterations 2
DILUPBiCGStab:  Solving for Uy, Initial residual = 0.0946417, Final residual = 3.61123e-07, No Iterations 2
DILUPBiCGStab:  Solving for T, Initial residual = 0.0100158, Final residual = 6.34865e-07, No Iterations 2
DICPCG:  Solving for p_rgh, Initial residual = 0.313861, Final residual = 0.0027491, No Iterations 50
time step continuity errors : sum local = 0.00697375, global = -0.000189395, cumulative = 0.000146181
ExecutionTime = 3.32 s  ClockTime = 4 s

Time = 5

DILUPBiCGStab:  Solving for Y, Initial residual = 0.0317542, Final residual = 5.9065e-07, No Iterations 61
DILUPBiCGStab:  Solving for Y, Initial residual = 0.0292029, Final residual = 9.43867e-07, No Iterations 67
DILUPBiCGStab:  Solving for Y, Initial residual = 0.0286834, Final residual = 8.21645e-07, No Iterations 68
DILUPBiCGStab:  Solving for Y, Initial residual = 0.0292033, Final residual = 9.04018e-07, No Iterations 67
DILUPBiCGStab:  Solving for Y, Initial residual = 0.0286833, Final residual = 1.73369e-07, No Iterations 68
DILUPBiCGStab:  Solving for Y, Initial residual = 0.0292026, Final residual = 2.19423e-07, No Iterations 69
DILUPBiCGStab:  Solving for Y, Initial residual = 0.028683, Final residual = 6.36866e-07, No Iterations 68
DILUPBiCGStab:  Solving for Y, Initial residual = 0.0292031, Final residual = 4.56058e-07, No Iterations 68
DILUPBiCGStab:  Solving for Y, Initial residual = 0.0286827, Final residual = 4.21608e-07, No Iterations 69
DILUPBiCGStab:  Solving for Y, Initial residual = 0.0292029, Final residual = 3.15321e-07, No Iterations 68
DILUPBiCGStab:  Solving for Y, Initial residual = 0.028683, Final residual = 4.32622e-07, No Iterations 68
DILUPBiCGStab:  Solving for Y, Initial residual = 0.029202, Final residual = 4.9735e-07, No Iterations 68
DILUPBiCGStab:  Solving for Y, Initial residual = 0.0286831, Final residual = 3.02967e-07, No Iterations 68
DILUPBiCGStab:  Solving for Y, Initial residual = 0.0292022, Final residual = 5.37187e-07, No Iterations 68
DILUPBiCGStab:  Solving for Y, Initial residual = 0.0286832, Final residual = 5.43132e-07, No Iterations 68
DILUPBiCGStab:  Solving for Y, Initial residual = 0.029203, Final residual = 5.00577e-07, No Iterations 68
DILUPBiCGStab:  Solving for Y, Initial residual = 0.0286831, Final residual = 2.26564e-07, No Iterations 68
DILUPBiCGStab:  Solving for Y, Initial residual = 0.0292027, Final residual = 5.34033e-07, No Iterations 67
DILUPBiCGStab:  Solving for Y, Initial residual = 0.0286827, Final residual = 3.23693e-07, No Iterations 68
DILUPBiCGStab:  Solving for Y, Initial residual = 0.0292028, Final residual = 2.99295e-07, No Iterations 69
DILUPBiCGStab:  Solving for Y, Initial residual = 0.028683, Final residual = 9.73808e-07, No Iterations 68
DILUPBiCGStab:  Solving for Y, Initial residual = 0.0292034, Final residual = 3.26516e-07, No Iterations 67
DILUPBiCGStab:  Solving for Y, Initial residual = 0.028683, Final residual = 8.32788e-07, No Iterations 66
DILUPBiCGStab:  Solving for Y, Initial residual = 0.0292032, Final residual = 4.82458e-07, No Iterations 68
DILUPBiCGStab:  Solving for Y, Initial residual = 0.0286831, Final residual = 2.17291e-07, No Iterations 69
DILUPBiCGStab:  Solving for Y, Initial residual = 0.0292026, Final residual = 1.65122e-07, No Iterations 68
DILUPBiCGStab:  Solving for Y, Initial residual = 0.0286829, Final residual = 3.31649e-07, No Iterations 69
DILUPBiCGStab:  Solving for Y, Initial residual = 0.0292028, Final residual = 2.44552e-07, No Iterations 69
DILUPBiCGStab:  Solving for Y, Initial residual = 0.028683, Final residual = 3.23639e-07, No Iterations 69
DILUPBiCGStab:  Solving for Y, Initial residual = 0.0292028, Final residual = 1.57975e-07, No Iterations 69
DILUPBiCGStab:  Solving for Y, Initial residual = 0.028683, Final residual = 6.61841e-07, No Iterations 68
DILUPBiCGStab:  Solving for Y, Initial residual = 0.0292031, Final residual = 4.40335e-07, No Iterations 68
DILUPBiCGStab:  Solving for Y, Initial residual = 0.0286831, Final residual = 4.53224e-07, No Iterations 68
DILUPBiCGStab:  Solving for Y, Initial residual = 0.0292029, Final residual = 3.69746e-07, No Iterations 68
DILUPBiCGStab:  Solving for Y, Initial residual = 0.0286831, Final residual = 4.49662e-07, No Iterations 68
DILUPBiCGStab:  Solving for Y, Initial residual = 0.0292029, Final residual = 7.56229e-07, No Iterations 67
DILUPBiCGStab:  Solving for Y, Initial residual = 0.0286833, Final residual = 8.0156e-07, No Iterations 68
DILUPBiCGStab:  Solving for Y, Initial residual = 0.0292032, Final residual = 7.01895e-07, No Iterations 68
DILUPBiCGStab:  Solving for Y, Initial residual = 0.0286832, Final residual = 2.84156e-07, No Iterations 69
DILUPBiCGStab:  Solving for Y, Initial residual = 0.0292027, Final residual = 5.18652e-07, No Iterations 68
DILUPBiCGStab:  Solving for Ux, Initial residual = 0.0748299, Final residual = 2.33696e-07, No Iterations 2
DILUPBiCGStab:  Solving for Uy, Initial residual = 0.081521, Final residual = 3.38199e-07, No Iterations 2
DILUPBiCGStab:  Solving for T, Initial residual = 0.00750498, Final residual = 4.7353e-07, No Iterations 2
DICPCG:  Solving for p_rgh, Initial residual = 0.338286, Final residual = 0.00283335, No Iterations 58
time step continuity errors : sum local = 0.00437179, global = -2.99265e-05, cumulative = 0.000116255
ExecutionTime = 4.04 s  ClockTime = 5 s

Time = 6

DILUPBiCGStab:  Solving for Y, Initial residual = 0.0311732, Final residual = 3.25249e-07, No Iterations 64
DILUPBiCGStab:  Solving for Y, Initial residual = 0.0290663, Final residual = 6.87692e-07, No Iterations 68
DILUPBiCGStab:  Solving for Y, Initial residual = 0.0285518, Final residual = 5.25006e-07, No Iterations 67
DILUPBiCGStab:  Solving for Y, Initial residual = 0.0290657, Final residual = 6.00147e-07, No Iterations 68
DILUPBiCGStab:  Solving for Y, Initial residual = 0.0285511, Final residual = 5.44892e-07, No Iterations 68
DILUPBiCGStab:  Solving for Y, Initial residual = 0.0290665, Final residual = 7.75133e-07, No Iterations 67
DILUPBiCGStab:  Solving for Y, Initial residual = 0.028551, Final residual = 4.39226e-07, No Iterations 68
DILUPBiCGStab:  Solving for Y, Initial residual = 0.0290664, Final residual = 2.64219e-07, No Iterations 68
DILUPBiCGStab:  Solving for Y, Initial residual = 0.0285515, Final residual = 7.95618e-07, No Iterations 68
DILUPBiCGStab:  Solving for Y, Initial residual = 0.0290667, Final residual = 1.83075e-07, No Iterations 68
DILUPBiCGStab:  Solving for Y, Initial residual = 0.0285514, Final residual = 3.47458e-07, No Iterations 69
DILUPBiCGStab:  Solving for Y, Initial residual = 0.0290663, Final residual = 3.65879e-07, No Iterations 68
DILUPBiCGStab:  Solving for Y, Initial residual = 0.0285516, Final residual = 3.82811e-07, No Iterations 68
DILUPBiCGStab:  Solving for Y, Initial residual = 0.0290663, Final residual = 3.82053e-07, No Iterations 68
DILUPBiCGStab:  Solving for Y, Initial residual = 0.0285516, Final residual = 4.70935e-07, No Iterations 69
DILUPBiCGStab:  Solving for Y, Initial residual = 0.0290664, Final residual = 4.98773e-07, No Iterations 68
DILUPBiCGStab:  Solving for Y, Initial residual = 0.0285512, Final residual = 6.69026e-07, No Iterations 68
DILUPBiCGStab:  Solving for Y, Initial residual = 0.0290666, Final residual = 5.90712e-07, No Iterations 68
DILUPBiCGStab:  Solving for Y, Initial residual = 0.0285517, Final residual = 1.09778e-07, No Iterations 70
DILUPBiCGStab:  Solving for Y, Initial residual = 0.0290661, Final residual = 5.77232e-07, No Iterations 68
DILUPBiCGStab:  Solving for Y, Initial residual = 0.0285517, Final residual = 3.00122e-07, No Iterations 67
DILUPBiCGStab:  Solving for Y, Initial residual = 0.0290661, Final residual = 3.69096e-07, No Iterations 68
DILUPBiCGStab:  Solving for Y, Initial residual = 0.0285516, Final residual = 6.6199e-07, No Iterations 68
DILUPBiCGStab:  Solving for Y, Initial residual = 0.0290666, Final residual = 7.92544e-07, No Iterations 68
DILUPBiCGStab:  Solving for Y, Initial residual = 0.0285518, Final residual = 3.53993e-07, No Iterations 69
DILUPBiCGStab:  Solving for Y, Initial residual = 0.0290663, Final residual = 5.90847e-07, No Iterations 68
DILUPBiCGStab:  Solving for Y, Initial residual = 0.0285517, Final residual = 2.66895e-07, No Iterations 67
DILUPBiCGStab:  Solving for Y, Initial residual = 0.0290662, Final residual = 5.23362e-07, No Iterations 68
DILUPBiCGStab:  Solving for Y, Initial residual = 0.0285517, Final residual = 7.03622e-07, No Iterations 68
DILUPBiCGStab:  Solving for Y, Initial residual = 0.0290653, Final residual = 7.73428e-07, No Iterations 68
DILUPBiCGStab:  Solving for Y, Initial residual = 0.0285518, Final residual = 2.733e-07, No Iterations 68
DILUPBiCGStab:  Solving for Y, Initial residual = 0.0290659, Final residual = 4.39299e-07, No Iterations 67
DILUPBiCGStab:  Solving for Y, Initial residual = 0.0285512, Final residual = 7.36219e-07, No Iterations 68
DILUPBiCGStab:  Solving for Y, Initial residual = 0.0290667, Final residual = 3.96868e-07, No Iterations 68
DILUPBiCGStab:  Solving for Y, Initial residual = 0.0285516, Final residual = 9.64146e-07, No Iterations 68
DILUPBiCGStab:  Solving for Y, Initial residual = 0.0290669, Final residual = 6.58416e-07, No Iterations 68
DILUPBiCGStab:  Solving for Y, Initial residual = 0.0285518, Final residual = 5.50199e-07, No Iterations 68
DILUPBiCGStab:  Solving for Y, Initial residual = 0.0290665, Final residual = 7.6845e-07, No Iterations 68
DILUPBiCGStab:  Solving for Y, Initial residual = 0.0285518, Final residual = 7.84559e-07, No Iterations 67
DILUPBiCGStab:  Solving for Y, Initial residual = 0.0290667, Final residual = 3.28557e-07, No Iterations 68
DILUPBiCGStab:  Solving for Ux, Initial residual = 0.0156741, Final residual = 2.05296e-07, No Iterations 2
DILUPBiCGStab:  Solving for Uy, Initial residual = 0.0168633, Final residual = 7.46902e-08, No Iterations 2
DILUPBiCGStab:  Solving for T, Initial residual = 0.00602236, Final residual = 3.74762e-07, No Iterations 2
DICPCG:  Solving for p_rgh, Initial residual = 0.300989, Final residual = 0.00296779, No Iterations 33
time step continuity errors : sum local = 0.00261377, global = -0.000534392, cumulative = -0.000418137
ExecutionTime = 4.88 s  ClockTime = 6 s

Time = 7

DILUPBiCGStab:  Solving for Y, Initial residual = 0.0299109, Final residual = 1.28797e-07, No Iterations 68
DILUPBiCGStab:  Solving for Y, Initial residual = 0.0290155, Final residual = 2.97384e-07, No Iterations 68
DILUPBiCGStab:  Solving for Y, Initial residual = 0.0285029, Final residual = 3.00207e-07, No Iterations 67
DILUPBiCGStab:  Solving for Y, Initial residual = 0.0290153, Final residual = 6.48998e-07, No Iterations 68
DILUPBiCGStab:  Solving for Y, Initial residual = 0.0285031, Final residual = 5.14978e-07, No Iterations 67
DILUPBiCGStab:  Solving for Y, Initial residual = 0.0290158, Final residual = 2.88367e-07, No Iterations 68
DILUPBiCGStab:  Solving for Y, Initial residual = 0.0285029, Final residual = 4.49009e-07, No Iterations 68
DILUPBiCGStab:  Solving for Y, Initial residual = 0.0290158, Final residual = 1.38444e-07, No Iterations 69
DILUPBiCGStab:  Solving for Y, Initial residual = 0.0285028, Final residual = 6.70535e-07, No Iterations 67
DILUPBiCGStab:  Solving for Y, Initial residual = 0.0290148, Final residual = 7.64672e-07, No Iterations 68
DILUPBiCGStab:  Solving for Y, Initial residual = 0.0285031, Final residual = 3.88337e-07, No Iterations 68
DILUPBiCGStab:  Solving for Y, Initial residual = 0.0290157, Final residual = 3.76362e-07, No Iterations 67
DILUPBiCGStab:  Solving for Y, Initial residual = 0.0285027, Final residual = 7.56777e-07, No Iterations 67
DILUPBiCGStab:  Solving for Y, Initial residual = 0.0290161, Final residual = 8.57867e-07, No Iterations 67
DILUPBiCGStab:  Solving for Y, Initial residual = 0.0285032, Final residual = 2.61935e-07, No Iterations 69
DILUPBiCGStab:  Solving for Y, Initial residual = 0.0290156, Final residual = 4.68665e-07, No Iterations 68
DILUPBiCGStab:  Solving for Y, Initial residual = 0.028503, Final residual = 1.64377e-07, No Iterations 68
DILUPBiCGStab:  Solving for Y, Initial residual = 0.0290153, Final residual = 9.82635e-07, No Iterations 67
DILUPBiCGStab:  Solving for Y, Initial residual = 0.0285032, Final residual = 8.22918e-07, No Iterations 67
DILUPBiCGStab:  Solving for Y, Initial residual = 0.0290162, Final residual = 6.05974e-07, No Iterations 68
DILUPBiCGStab:  Solving for Y, Initial residual = 0.0285031, Final residual = 7.64943e-07, No Iterations 68
DILUPBiCGStab:  Solving for Y, Initial residual = 0.0290161, Final residual = 7.15789e-07, No Iterations 68
DILUPBiCGStab:  Solving for Y, Initial residual = 0.0285031, Final residual = 3.04631e-07, No Iterations 69
DILUPBiCGStab:  Solving for Y, Initial residual = 0.0290157, Final residual = 8.38937e-07, No Iterations 67
DILUPBiCGStab:  Solving for Y, Initial residual = 0.0285032, Final residual = 6.02816e-07, No Iterations 68
DILUPBiCGStab:  Solving for Y, Initial residual = 0.029016, Final residual = 3.36357e-07, No Iterations 69
DILUPBiCGStab:  Solving for Y, Initial residual = 0.0285029, Final residual = 8.07768e-07, No Iterations 68
DILUPBiCGStab:  Solving for Y, Initial residual = 0.0290162, Final residual = 7.85133e-07, No Iterations 68
DILUPBiCGStab:  Solving for Y, Initial residual = 0.0285032, Final residual = 2.92932e-07, No Iterations 69
DILUPBiCGStab:  Solving for Y, Initial residual = 0.0290157, Final residual = 4.19669e-07, No Iterations 69
DILUPBiCGStab:  Solving for Y, Initial residual = 0.028503, Final residual = 4.00607e-07, No Iterations 68
DILUPBiCGStab:  Solving for Y, Initial residual = 0.0290158, Final residual = 5.10009e-07, No Iterations 67
DILUPBiCGStab:  Solving for Y, Initial residual = 0.0285029, Final residual = 8.54408e-07, No Iterations 68
DILUPBiCGStab:  Solving for Y, Initial residual = 0.0290162, Final residual = 1.52178e-07, No Iterations 68
DILUPBiCGStab:  Solving for Y, Initial residual = 0.0285027, Final residual = 6.63831e-07, No Iterations 68
DILUPBiCGStab:  Solving for Y, Initial residual = 0.029016, Final residual = 3.04355e-07, No Iterations 68
DILUPBiCGStab:  Solving for Y, Initial residual = 0.0285029, Final residual = 3.72656e-07, No Iterations 68
DILUPBiCGStab:  Solving for Y, Initial residual = 0.0290157, Final residual = 2.5866e-07, No Iterations 68
DILUPBiCGStab:  Solving for Y, Initial residual = 0.0285029, Final residual = 8.04935e-07, No Iterations 68
DILUPBiCGStab:  Solving for Y, Initial residual = 0.0290162, Final residual = 5.62093e-07, No Iterations 68
DILUPBiCGStab:  Solving for Ux, Initial residual = 0.0244342, Final residual = 7.82289e-08, No Iterations 2
DILUPBiCGStab:  Solving for Uy, Initial residual = 0.0251402, Final residual = 7.53734e-08, No Iterations 2
DILUPBiCGStab:  Solving for T, Initial residual = 0.00501757, Final residual = 3.07871e-07, No Iterations 2
DICPCG:  Solving for p_rgh, Initial residual = 0.183275, Final residual = 0.00176689, No Iterations 57
time step continuity errors : sum local = 0.00171629, global = 2.84172e-05, cumulative = -0.00038972
ExecutionTime = 5.72 s  ClockTime = 7 s

Time = 8

DILUPBiCGStab:  Solving for Y, Initial residual = 0.0293755, Final residual = 9.7763e-07, No Iterations 65
DILUPBiCGStab:  Solving for Y, Initial residual = 0.0289788, Final residual = 1.39237e-07, No Iterations 68
DILUPBiCGStab:  Solving for Y, Initial residual = 0.0284668, Final residual = 4.58629e-07, No Iterations 68
DILUPBiCGStab:  Solving for Y, Initial residual = 0.0289783, Final residual = 9.73754e-07, No Iterations 67
DILUPBiCGStab:  Solving for Y, Initial residual = 0.0284672, Final residual = 4.66376e-07, No Iterations 68
DILUPBiCGStab:  Solving for Y, Initial residual = 0.0289783, Final residual = 6.21404e-07, No Iterations 68
DILUPBiCGStab:  Solving for Y, Initial residual = 0.028467, Final residual = 7.2902e-07, No Iterations 68
DILUPBiCGStab:  Solving for Y, Initial residual = 0.0289786, Final residual = 9.61357e-07, No Iterations 66
DILUPBiCGStab:  Solving for Y, Initial residual = 0.0284672, Final residual = 3.69726e-07, No Iterations 68
DILUPBiCGStab:  Solving for Y, Initial residual = 0.0289782, Final residual = 6.93781e-07, No Iterations 68
DILUPBiCGStab:  Solving for Y, Initial residual = 0.0284671, Final residual = 6.88684e-07, No Iterations 68
DILUPBiCGStab:  Solving for Y, Initial residual = 0.0289785, Final residual = 3.91638e-07, No Iterations 68
DILUPBiCGStab:  Solving for Y, Initial residual = 0.0284669, Final residual = 7.56885e-07, No Iterations 67
DILUPBiCGStab:  Solving for Y, Initial residual = 0.0289786, Final residual = 2.648e-07, No Iterations 69
DILUPBiCGStab:  Solving for Y, Initial residual = 0.0284669, Final residual = 5.36437e-07, No Iterations 68
DILUPBiCGStab:  Solving for Y, Initial residual = 0.0289784, Final residual = 1.4534e-07, No Iterations 69
DILUPBiCGStab:  Solving for Y, Initial residual = 0.0284668, Final residual = 7.41694e-07, No Iterations 68
DILUPBiCGStab:  Solving for Y, Initial residual = 0.0289786, Final residual = 4.45146e-07, No Iterations 68
DILUPBiCGStab:  Solving for Y, Initial residual = 0.0284669, Final residual = 3.50317e-07, No Iterations 68
DILUPBiCGStab:  Solving for Y, Initial residual = 0.0289782, Final residual = 8.63537e-07, No Iterations 68
DILUPBiCGStab:  Solving for Y, Initial residual = 0.0284672, Final residual = 3.82958e-07, No Iterations 68
DILUPBiCGStab:  Solving for Y, Initial residual = 0.0289782, Final residual = 1.70461e-07, No Iterations 68
DILUPBiCGStab:  Solving for Y, Initial residual = 0.0284668, Final residual = 3.75526e-07, No Iterations 67
DILUPBiCGStab:  Solving for Y, Initial residual = 0.0289782, Final residual = 7.57651e-07, No Iterations 68
DILUPBiCGStab:  Solving for Y, Initial residual = 0.0284671, Final residual = 7.01371e-07, No Iterations 68
DILUPBiCGStab:  Solving for Y, Initial residual = 0.0289772, Final residual = 2.12636e-07, No Iterations 68
DILUPBiCGStab:  Solving for Y, Initial residual = 0.0284667, Final residual = 7.37066e-07, No Iterations 68
DILUPBiCGStab:  Solving for Y, Initial residual = 0.0289786, Final residual = 3.83908e-07, No Iterations 69
DILUPBiCGStab:  Solving for Y, Initial residual = 0.0284669, Final residual = 3.85712e-07, No Iterations 67
DILUPBiCGStab:  Solving for Y, Initial residual = 0.0289782, Final residual = 4.66998e-07, No Iterations 67
DILUPBiCGStab:  Solving for Y, Initial residual = 0.0284666, Final residual = 7.04279e-07, No Iterations 68
DILUPBiCGStab:  Solving for Y, Initial residual = 0.0289786, Final residual = 5.70344e-07, No Iterations 68
DILUPBiCGStab:  Solving for Y, Initial residual = 0.028467, Final residual = 1.89375e-07, No Iterations 68
DILUPBiCGStab:  Solving for Y, Initial residual = 0.028978, Final residual = 6.74746e-07, No Iterations 67
DILUPBiCGStab:  Solving for Y, Initial residual = 0.0284671, Final residual = 1.35506e-07, No Iterations 68
DILUPBiCGStab:  Solving for Y, Initial residual = 0.0289779, Final residual = 5.36467e-07, No Iterations 68
DILUPBiCGStab:  Solving for Y, Initial residual = 0.028467, Final residual = 3.94628e-07, No Iterations 69
DILUPBiCGStab:  Solving for Y, Initial residual = 0.0289783, Final residual = 4.01054e-07, No Iterations 68
DILUPBiCGStab:  Solving for Y, Initial residual = 0.0284669, Final residual = 1.39454e-07, No Iterations 68
DILUPBiCGStab:  Solving for Y, Initial residual = 0.0289778, Final residual = 3.16647e-07, No Iterations 68
DILUPBiCGStab:  Solving for Ux, Initial residual = 0.0107795, Final residual = 9.61882e-07, No Iterations 2
DILUPBiCGStab:  Solving for Uy, Initial residual = 0.00737133, Final residual = 6.19438e-07, No Iterations 2
DILUPBiCGStab:  Solving for T, Initial residual = 0.00430275, Final residual = 2.6098e-07, No Iterations 2
DICPCG:  Solving for p_rgh, Initial residual = 0.0896207, Final residual = 0.000801056, No Iterations 54
time step continuity errors : sum local = 0.000848936, global = 8.46998e-06, cumulative = -0.00038125
ExecutionTime = 6.39 s  ClockTime = 7 s

Time = 9

DILUPBiCGStab:  Solving for Y, Initial residual = 0.0291743, Final residual = 8.41649e-07, No Iterations 68
DILUPBiCGStab:  Solving for Y, Initial residual = 0.0289469, Final residual = 5.83835e-07, No Iterations 68
DILUPBiCGStab:  Solving for Y, Initial residual = 0.0284365, Final residual = 2.20529e-07, No Iterations 69
DILUPBiCGStab:  Solving for Y, Initial residual = 0.0289463, Final residual = 4.90654e-07, No Iterations 68
DILUPBiCGStab:  Solving for Y, Initial residual = 0.0284365, Final residual = 5.42663e-07, No Iterations 68
DILUPBiCGStab:  Solving for Y, Initial residual = 0.0289466, Final residual = 2.74227e-07, No Iterations 68
DILUPBiCGStab:  Solving for Y, Initial residual = 0.0284363, Final residual = 5.86103e-07, No Iterations 68
DILUPBiCGStab:  Solving for Y, Initial residual = 0.0289466, Final residual = 9.75549e-07, No Iterations 66
DILUPBiCGStab:  Solving for Y, Initial residual = 0.0284367, Final residual = 2.89574e-07, No Iterations 68
DILUPBiCGStab:  Solving for Y, Initial residual = 0.0289463, Final residual = 4.40158e-07, No Iterations 68
DILUPBiCGStab:  Solving for Y, Initial residual = 0.0284364, Final residual = 3.33848e-07, No Iterations 67
DILUPBiCGStab:  Solving for Y, Initial residual = 0.0289459, Final residual = 5.47055e-07, No Iterations 68
DILUPBiCGStab:  Solving for Y, Initial residual = 0.0284365, Final residual = 4.96917e-07, No Iterations 68
DILUPBiCGStab:  Solving for Y, Initial residual = 0.0289466, Final residual = 5.94552e-07, No Iterations 68
DILUPBiCGStab:  Solving for Y, Initial residual = 0.0284365, Final residual = 5.43291e-07, No Iterations 67
DILUPBiCGStab:  Solving for Y, Initial residual = 0.0289466, Final residual = 6.8781e-07, No Iterations 68
DILUPBiCGStab:  Solving for Y, Initial residual = 0.0284366, Final residual = 6.04894e-07, No Iterations 68
DILUPBiCGStab:  Solving for Y, Initial residual = 0.0289467, Final residual = 2.5264e-07, No Iterations 67
DILUPBiCGStab:  Solving for Y, Initial residual = 0.0284362, Final residual = 2.81137e-07, No Iterations 68
DILUPBiCGStab:  Solving for Y, Initial residual = 0.0289463, Final residual = 7.66194e-08, No Iterations 68
DILUPBiCGStab:  Solving for Y, Initial residual = 0.0284362, Final residual = 3.22355e-07, No Iterations 68
DILUPBiCGStab:  Solving for Y, Initial residual = 0.0289464, Final residual = 8.20967e-07, No Iterations 67
DILUPBiCGStab:  Solving for Y, Initial residual = 0.0284366, Final residual = 9.07403e-07, No Iterations 66
DILUPBiCGStab:  Solving for Y, Initial residual = 0.0289468, Final residual = 3.74659e-07, No Iterations 68
DILUPBiCGStab:  Solving for Y, Initial residual = 0.0284364, Final residual = 7.37409e-07, No Iterations 67
DILUPBiCGStab:  Solving for Y, Initial residual = 0.0289468, Final residual = 9.3784e-07, No Iterations 68
DILUPBiCGStab:  Solving for Y, Initial residual = 0.0284367, Final residual = 4.06186e-07, No Iterations 69
DILUPBiCGStab:  Solving for Y, Initial residual = 0.0289465, Final residual = 2.3921e-07, No Iterations 68
DILUPBiCGStab:  Solving for Y, Initial residual = 0.0284363, Final residual = 8.1753e-08, No Iterations 69
DILUPBiCGStab:  Solving for Y, Initial residual = 0.0289461, Final residual = 1.26562e-07, No Iterations 68
DILUPBiCGStab:  Solving for Y, Initial residual = 0.0284362, Final residual = 4.3047e-07, No Iterations 68
DILUPBiCGStab:  Solving for Y, Initial residual = 0.0289465, Final residual = 5.54579e-07, No Iterations 68
DILUPBiCGStab:  Solving for Y, Initial residual = 0.0284365, Final residual = 6.31646e-07, No Iterations 68
DILUPBiCGStab:  Solving for Y, Initial residual = 0.0289467, Final residual = 9.8449e-07, No Iterations 67
DILUPBiCGStab:  Solving for Y, Initial residual = 0.0284367, Final residual = 9.84023e-07, No Iterations 68
DILUPBiCGStab:  Solving for Y, Initial residual = 0.0289471, Final residual = 9.16207e-07, No Iterations 67
DILUPBiCGStab:  Solving for Y, Initial residual = 0.0284367, Final residual = 3.88616e-07, No Iterations 69
DILUPBiCGStab:  Solving for Y, Initial residual = 0.0289465, Final residual = 3.19886e-07, No Iterations 69
DILUPBiCGStab:  Solving for Y, Initial residual = 0.0284364, Final residual = 1.3154e-07, No Iterations 68
DILUPBiCGStab:  Solving for Y, Initial residual = 0.0289462, Final residual = 2.5622e-07, No Iterations 69
DILUPBiCGStab:  Solving for Ux, Initial residual = 0.0100804, Final residual = 5.25679e-07, No Iterations 2
DILUPBiCGStab:  Solving for Uy, Initial residual = 0.00829212, Final residual = 6.62256e-07, No Iterations 2
DILUPBiCGStab:  Solving for T, Initial residual = 0.00376964, Final residual = 2.26352e-07, No Iterations 2
DICPCG:  Solving for p_rgh, Initial residual = 0.064641, Final residual = 0.000637938, No Iterations 49
time step continuity errors : sum local = 0.000663573, global = -4.61831e-05, cumulative = -0.000427433
ExecutionTime = 7.19 s  ClockTime = 8 s

Time = 10

DILUPBiCGStab:  Solving for Y, Initial residual = 0.0290273, Final residual = 3.23637e-07, No Iterations 69
DILUPBiCGStab:  Solving for Y, Initial residual = 0.0289298, Final residual = 4.56536e-07, No Iterations 68
DILUPBiCGStab:  Solving for Y, Initial residual = 0.0284206, Final residual = 5.35531e-07, No Iterations 68
DILUPBiCGStab:  Solving for Y, Initial residual = 0.02893, Final residual = 4.62352e-07, No Iterations 68
DILUPBiCGStab:  Solving for Y, Initial residual = 0.0284206, Final residual = 7.25642e-07, No Iterations 68
DILUPBiCGStab:  Solving for Y, Initial residual = 0.0289302, Final residual = 4.67347e-07, No Iterations 68
DILUPBiCGStab:  Solving for Y, Initial residual = 0.0284206, Final residual = 6.30232e-07, No Iterations 68
DILUPBiCGStab:  Solving for Y, Initial residual = 0.0289301, Final residual = 3.53722e-07, No Iterations 68
DILUPBiCGStab:  Solving for Y, Initial residual = 0.0284205, Final residual = 3.48994e-07, No Iterations 67
DILUPBiCGStab:  Solving for Y, Initial residual = 0.0289294, Final residual = 7.4056e-07, No Iterations 68
DILUPBiCGStab:  Solving for Y, Initial residual = 0.0284208, Final residual = 6.43117e-07, No Iterations 68
DILUPBiCGStab:  Solving for Y, Initial residual = 0.0289301, Final residual = 2.5366e-07, No Iterations 69
DILUPBiCGStab:  Solving for Y, Initial residual = 0.0284205, Final residual = 5.81439e-07, No Iterations 68
DILUPBiCGStab:  Solving for Y, Initial residual = 0.0289301, Final residual = 6.14329e-07, No Iterations 67
DILUPBiCGStab:  Solving for Y, Initial residual = 0.0284201, Final residual = 3.8493e-07, No Iterations 68
DILUPBiCGStab:  Solving for Y, Initial residual = 0.0289299, Final residual = 4.05909e-07, No Iterations 68
DILUPBiCGStab:  Solving for Y, Initial residual = 0.0284206, Final residual = 7.92077e-07, No Iterations 67
DILUPBiCGStab:  Solving for Y, Initial residual = 0.0289288, Final residual = 2.67502e-07, No Iterations 69
DILUPBiCGStab:  Solving for Y, Initial residual = 0.0284205, Final residual = 5.02738e-07, No Iterations 68
DILUPBiCGStab:  Solving for Y, Initial residual = 0.02893, Final residual = 1.5603e-07, No Iterations 68
DILUPBiCGStab:  Solving for Y, Initial residual = 0.0284205, Final residual = 3.62284e-07, No Iterations 68
DILUPBiCGStab:  Solving for Y, Initial residual = 0.0289298, Final residual = 3.76177e-07, No Iterations 68
DILUPBiCGStab:  Solving for Y, Initial residual = 0.0284206, Final residual = 2.86253e-07, No Iterations 68
DILUPBiCGStab:  Solving for Y, Initial residual = 0.0289298, Final residual = 2.85293e-07, No Iterations 69
DILUPBiCGStab:  Solving for Y, Initial residual = 0.0284205, Final residual = 2.26277e-07, No Iterations 69
DILUPBiCGStab:  Solving for Y, Initial residual = 0.0289297, Final residual = 6.43132e-07, No Iterations 67
DILUPBiCGStab:  Solving for Y, Initial residual = 0.0284207, Final residual = 4.00686e-07, No Iterations 68
DILUPBiCGStab:  Solving for Y, Initial residual = 0.0289299, Final residual = 5.4424e-07, No Iterations 67
DILUPBiCGStab:  Solving for Y, Initial residual = 0.0284201, Final residual = 4.1487e-07, No Iterations 67
DILUPBiCGStab:  Solving for Y, Initial residual = 0.0289298, Final residual = 4.3352e-07, No Iterations 68
DILUPBiCGStab:  Solving for Y, Initial residual = 0.0284206, Final residual = 5.81352e-07, No Iterations 68
DILUPBiCGStab:  Solving for Y, Initial residual = 0.0289289, Final residual = 2.62884e-07, No Iterations 69
DILUPBiCGStab:  Solving for Y, Initial residual = 0.0284205, Final residual = 9.77914e-07, No Iterations 66
DILUPBiCGStab:  Solving for Y, Initial residual = 0.0289297, Final residual = 4.07695e-07, No Iterations 68
DILUPBiCGStab:  Solving for Y, Initial residual = 0.0284206, Final residual = 1.41072e-07, No Iterations 69
DILUPBiCGStab:  Solving for Y, Initial residual = 0.0289296, Final residual = 7.00398e-07, No Iterations 67
DILUPBiCGStab:  Solving for Y, Initial residual = 0.0284207, Final residual = 3.48692e-07, No Iterations 68
DILUPBiCGStab:  Solving for Y, Initial residual = 0.0289298, Final residual = 5.62194e-07, No Iterations 67
DILUPBiCGStab:  Solving for Y, Initial residual = 0.0284206, Final residual = 5.14659e-07, No Iterations 68
DILUPBiCGStab:  Solving for Y, Initial residual = 0.02893, Final residual = 3.41052e-07, No Iterations 69
DILUPBiCGStab:  Solving for Ux, Initial residual = 0.00815712, Final residual = 8.14284e-07, No Iterations 2
DILUPBiCGStab:  Solving for Uy, Initial residual = 0.00659954, Final residual = 5.94056e-07, No Iterations 2
DILUPBiCGStab:  Solving for T, Initial residual = 0.00335517, Final residual = 1.9853e-07, No Iterations 2
DICPCG:  Solving for p_rgh, Initial residual = 0.0506413, Final residual = 0.000466543, No Iterations 55
time step continuity errors : sum local = 0.000444826, global = 9.68045e-06, cumulative = -0.000417752
ExecutionTime = 7.82 s  ClockTime = 9 s

Time = 11

DILUPBiCGStab:  Solving for Y, Initial residual = 0.0289783, Final residual = 5.96447e-07, No Iterations 68
DILUPBiCGStab:  Solving for Y, Initial residual = 0.0289021, Final residual = 8.15943e-07, No Iterations 67
DILUPBiCGStab:  Solving for Y, Initial residual = 0.028394, Final residual = 4.14893e-07, No Iterations 68
DILUPBiCGStab:  Solving for Y, Initial residual = 0.028902, Final residual = 5.61056e-07, No Iterations 68
DILUPBiCGStab:  Solving for Y, Initial residual = 0.0283939, Final residual = 1.52905e-07, No Iterations 69
DILUPBiCGStab:  Solving for Y, Initial residual = 0.0289017, Final residual = 4.87727e-07, No Iterations 68
DILUPBiCGStab:  Solving for Y, Initial residual = 0.0283938, Final residual = 7.15232e-07, No Iterations 67
DILUPBiCGStab:  Solving for Y, Initial residual = 0.0289021, Final residual = 8.8341e-07, No Iterations 67
DILUPBiCGStab:  Solving for Y, Initial residual = 0.028394, Final residual = 3.95104e-07, No Iterations 68
DILUPBiCGStab:  Solving for Y, Initial residual = 0.0289012, Final residual = 7.33386e-07, No Iterations 68
DILUPBiCGStab:  Solving for Y, Initial residual = 0.028394, Final residual = 2.62246e-07, No Iterations 69
DILUPBiCGStab:  Solving for Y, Initial residual = 0.0289018, Final residual = 5.99709e-07, No Iterations 67
DILUPBiCGStab:  Solving for Y, Initial residual = 0.0283939, Final residual = 4.93334e-07, No Iterations 68
DILUPBiCGStab:  Solving for Y, Initial residual = 0.0289021, Final residual = 4.18619e-07, No Iterations 68
DILUPBiCGStab:  Solving for Y, Initial residual = 0.0283938, Final residual = 9.1468e-07, No Iterations 68
DILUPBiCGStab:  Solving for Y, Initial residual = 0.0289007, Final residual = 8.49073e-07, No Iterations 67
DILUPBiCGStab:  Solving for Y, Initial residual = 0.028394, Final residual = 7.17021e-07, No Iterations 68
DILUPBiCGStab:  Solving for Y, Initial residual = 0.0289023, Final residual = 3.60052e-07, No Iterations 68
DILUPBiCGStab:  Solving for Y, Initial residual = 0.0283938, Final residual = 3.55313e-07, No Iterations 68
DILUPBiCGStab:  Solving for Y, Initial residual = 0.0289019, Final residual = 3.33063e-07, No Iterations 69
DILUPBiCGStab:  Solving for Y, Initial residual = 0.0283938, Final residual = 3.2799e-07, No Iterations 68
DILUPBiCGStab:  Solving for Y, Initial residual = 0.0289019, Final residual = 7.65163e-07, No Iterations 67
DILUPBiCGStab:  Solving for Y, Initial residual = 0.0283932, Final residual = 3.5761e-07, No Iterations 68
DILUPBiCGStab:  Solving for Y, Initial residual = 0.0289019, Final residual = 8.32496e-07, No Iterations 68
DILUPBiCGStab:  Solving for Y, Initial residual = 0.028394, Final residual = 4.08926e-07, No Iterations 68
DILUPBiCGStab:  Solving for Y, Initial residual = 0.028902, Final residual = 6.8826e-07, No Iterations 67
DILUPBiCGStab:  Solving for Y, Initial residual = 0.0283939, Final residual = 4.54833e-07, No Iterations 68
DILUPBiCGStab:  Solving for Y, Initial residual = 0.028902, Final residual = 4.15345e-07, No Iterations 69
DILUPBiCGStab:  Solving for Y, Initial residual = 0.0283938, Final residual = 7.49545e-07, No Iterations 68
DILUPBiCGStab:  Solving for Y, Initial residual = 0.0289023, Final residual = 2.21649e-07, No Iterations 68
DILUPBiCGStab:  Solving for Y, Initial residual = 0.0283937, Final residual = 4.60494e-07, No Iterations 69
DILUPBiCGStab:  Solving for Y, Initial residual = 0.028902, Final residual = 7.26712e-07, No Iterations 68
DILUPBiCGStab:  Solving for Y, Initial residual = 0.028394, Final residual = 6.64569e-07, No Iterations 68
DILUPBiCGStab:  Solving for Y, Initial residual = 0.0289022, Final residual = 3.00818e-07, No Iterations 68
DILUPBiCGStab:  Solving for Y, Initial residual = 0.0283938, Final residual = 2.81016e-07, No Iterations 69
DILUPBiCGStab:  Solving for Y, Initial residual = 0.0289019, Final residual = 2.83087e-07, No Iterations 68
DILUPBiCGStab:  Solving for Y, Initial residual = 0.0283938, Final residual = 3.26859e-07, No Iterations 68
DILUPBiCGStab:  Solving for Y, Initial residual = 0.0289019, Final residual = 4.7549e-07, No Iterations 68
DILUPBiCGStab:  Solving for Y, Initial residual = 0.0283938, Final residual = 3.43339e-07, No Iterations 67
DILUPBiCGStab:  Solving for Y, Initial residual = 0.0289019, Final residual = 4.64119e-07, No Iterations 68
DILUPBiCGStab:  Solving for Ux, Initial residual = 0.0073563, Final residual = 4.44889e-07, No Iterations 2
DILUPBiCGStab:  Solving for Uy, Initial residual = 0.00524437, Final residual = 3.80488e-07, No Iterations 2
DILUPBiCGStab:  Solving for T, Initial residual = 0.00302404, Final residual = 1.76979e-07, No Iterations 2
DICPCG:  Solving for p_rgh, Initial residual = 0.0386459, Final residual = 0.000378369, No Iterations 28
time step continuity errors : sum local = 0.000332333, global = -3.35431e-05, cumulative = -0.000451295
ExecutionTime = 8.47 s  ClockTime = 9 s

Time = 12

DILUPBiCGStab:  Solving for Y, Initial residual = 0.02891, Final residual = 5.86671e-07, No Iterations 68
DILUPBiCGStab:  Solving for Y, Initial residual = 0.0288733, Final residual = 2.19557e-07, No Iterations 68
DILUPBiCGStab:  Solving for Y, Initial residual = 0.0283669, Final residual = 4.21574e-07, No Iterations 68
DILUPBiCGStab:  Solving for Y, Initial residual = 0.0288743, Final residual = 6.12777e-07, No Iterations 67
DILUPBiCGStab:  Solving for Y, Initial residual = 0.0283673, Final residual = 4.94972e-07, No Iterations 68
DILUPBiCGStab:  Solving for Y, Initial residual = 0.0288743, Final residual = 6.84241e-07, No Iterations 68
DILUPBiCGStab:  Solving for Y, Initial residual = 0.0283673, Final residual = 6.07292e-07, No Iterations 67
DILUPBiCGStab:  Solving for Y, Initial residual = 0.0288733, Final residual = 4.21156e-07, No Iterations 68
DILUPBiCGStab:  Solving for Y, Initial residual = 0.0283672, Final residual = 3.1243e-07, No Iterations 69
DILUPBiCGStab:  Solving for Y, Initial residual = 0.0288741, Final residual = 5.43083e-07, No Iterations 68
DILUPBiCGStab:  Solving for Y, Initial residual = 0.0283672, Final residual = 5.35077e-07, No Iterations 68
DILUPBiCGStab:  Solving for Y, Initial residual = 0.0288744, Final residual = 1.85266e-07, No Iterations 68
DILUPBiCGStab:  Solving for Y, Initial residual = 0.0283669, Final residual = 1.92406e-07, No Iterations 67
DILUPBiCGStab:  Solving for Y, Initial residual = 0.0288739, Final residual = 6.28467e-07, No Iterations 68
DILUPBiCGStab:  Solving for Y, Initial residual = 0.0283673, Final residual = 6.26924e-07, No Iterations 68
DILUPBiCGStab:  Solving for Y, Initial residual = 0.0288745, Final residual = 4.44093e-07, No Iterations 67
DILUPBiCGStab:  Solving for Y, Initial residual = 0.0283672, Final residual = 9.43457e-07, No Iterations 68
DILUPBiCGStab:  Solving for Y, Initial residual = 0.0288748, Final residual = 5.35903e-07, No Iterations 68
DILUPBiCGStab:  Solving for Y, Initial residual = 0.0283672, Final residual = 6.26391e-07, No Iterations 67
DILUPBiCGStab:  Solving for Y, Initial residual = 0.0288733, Final residual = 6.02211e-07, No Iterations 68
DILUPBiCGStab:  Solving for Y, Initial residual = 0.0283673, Final residual = 9.89948e-07, No Iterations 67
DILUPBiCGStab:  Solving for Y, Initial residual = 0.0288748, Final residual = 8.6829e-07, No Iterations 67
DILUPBiCGStab:  Solving for Y, Initial residual = 0.0283665, Final residual = 3.6041e-07, No Iterations 68
DILUPBiCGStab:  Solving for Y, Initial residual = 0.0288741, Final residual = 6.68412e-07, No Iterations 68
DILUPBiCGStab:  Solving for Y, Initial residual = 0.0283673, Final residual = 3.98145e-07, No Iterations 68
DILUPBiCGStab:  Solving for Y, Initial residual = 0.0288742, Final residual = 2.43737e-07, No Iterations 67
DILUPBiCGStab:  Solving for Y, Initial residual = 0.0283669, Final residual = 3.07335e-07, No Iterations 68
DILUPBiCGStab:  Solving for Y, Initial residual = 0.0288736, Final residual = 6.9041e-07, No Iterations 68
DILUPBiCGStab:  Solving for Y, Initial residual = 0.0283666, Final residual = 3.5017e-07, No Iterations 67
DILUPBiCGStab:  Solving for Y, Initial residual = 0.0288737, Final residual = 2.69468e-07, No Iterations 69
DILUPBiCGStab:  Solving for Y, Initial residual = 0.0283671, Final residual = 5.4552e-07, No Iterations 68
DILUPBiCGStab:  Solving for Y, Initial residual = 0.0288744, Final residual = 3.417e-07, No Iterations 67
DILUPBiCGStab:  Solving for Y, Initial residual = 0.0283671, Final residual = 2.17257e-07, No Iterations 69
DILUPBiCGStab:  Solving for Y, Initial residual = 0.028874, Final residual = 2.15236e-07, No Iterations 69
DILUPBiCGStab:  Solving for Y, Initial residual = 0.0283671, Final residual = 2.73951e-07, No Iterations 68
DILUPBiCGStab:  Solving for Y, Initial residual = 0.0288741, Final residual = 2.75565e-07, No Iterations 69
DILUPBiCGStab:  Solving for Y, Initial residual = 0.0283671, Final residual = 2.33308e-07, No Iterations 68
DILUPBiCGStab:  Solving for Y, Initial residual = 0.0288741, Final residual = 4.6968e-07, No Iterations 68
DILUPBiCGStab:  Solving for Y, Initial residual = 0.0283672, Final residual = 4.11776e-07, No Iterations 68
DILUPBiCGStab:  Solving for Y, Initial residual = 0.0288742, Final residual = 3.95378e-07, No Iterations 68
DILUPBiCGStab:  Solving for Ux, Initial residual = 0.00742549, Final residual = 4.93132e-07, No Iterations 2
DILUPBiCGStab:  Solving for Uy, Initial residual = 0.00478119, Final residual = 3.45957e-07, No Iterations 2
DILUPBiCGStab:  Solving for T, Initial residual = 0.00275335, Final residual = 1.60182e-07, No Iterations 2
DICPCG:  Solving for p_rgh, Initial residual = 0.0304404, Final residual = 0.000292825, No Iterations 37
time step continuity errors : sum local = 0.000255186, global = 6.22208e-05, cumulative = -0.000389075
ExecutionTime = 9.22 s  ClockTime = 10 s

Time = 13

DILUPBiCGStab:  Solving for Y, Initial residual = 0.0288543, Final residual = 1.59575e-07, No Iterations 68
DILUPBiCGStab:  Solving for Y, Initial residual = 0.0288466, Final residual = 4.7278e-07, No Iterations 68
DILUPBiCGStab:  Solving for Y, Initial residual = 0.0283412, Final residual = 3.76071e-07, No Iterations 68
DILUPBiCGStab:  Solving for Y, Initial residual = 0.0288471, Final residual = 5.44764e-07, No Iterations 68
DILUPBiCGStab:  Solving for Y, Initial residual = 0.0283413, Final residual = 1.09781e-07, No Iterations 68
DILUPBiCGStab:  Solving for Y, Initial residual = 0.0288468, Final residual = 3.68245e-07, No Iterations 68
DILUPBiCGStab:  Solving for Y, Initial residual = 0.0283412, Final residual = 5.27598e-07, No Iterations 68
DILUPBiCGStab:  Solving for Y, Initial residual = 0.0288473, Final residual = 1.80581e-07, No Iterations 68
DILUPBiCGStab:  Solving for Y, Initial residual = 0.028341, Final residual = 1.79106e-07, No Iterations 69
DILUPBiCGStab:  Solving for Y, Initial residual = 0.0288469, Final residual = 6.16196e-07, No Iterations 66
DILUPBiCGStab:  Solving for Y, Initial residual = 0.0283409, Final residual = 2.92116e-07, No Iterations 69
DILUPBiCGStab:  Solving for Y, Initial residual = 0.0288471, Final residual = 6.26416e-07, No Iterations 68
DILUPBiCGStab:  Solving for Y, Initial residual = 0.0283413, Final residual = 1.22214e-07, No Iterations 68
DILUPBiCGStab:  Solving for Y, Initial residual = 0.0288468, Final residual = 4.69038e-07, No Iterations 68
DILUPBiCGStab:  Solving for Y, Initial residual = 0.0283412, Final residual = 1.96363e-07, No Iterations 69
DILUPBiCGStab:  Solving for Y, Initial residual = 0.028847, Final residual = 6.52201e-07, No Iterations 68
DILUPBiCGStab:  Solving for Y, Initial residual = 0.0283413, Final residual = 4.89305e-07, No Iterations 68
DILUPBiCGStab:  Solving for Y, Initial residual = 0.0288473, Final residual = 7.60368e-07, No Iterations 67
DILUPBiCGStab:  Solving for Y, Initial residual = 0.0283413, Final residual = 5.81302e-07, No Iterations 68
DILUPBiCGStab:  Solving for Y, Initial residual = 0.0288473, Final residual = 4.56826e-07, No Iterations 68
DILUPBiCGStab:  Solving for Y, Initial residual = 0.0283412, Final residual = 6.52608e-07, No Iterations 68
DILUPBiCGStab:  Solving for Y, Initial residual = 0.0288474, Final residual = 1.58068e-07, No Iterations 69
DILUPBiCGStab:  Solving for Y, Initial residual = 0.0283411, Final residual = 4.88557e-07, No Iterations 68
DILUPBiCGStab:  Solving for Y, Initial residual = 0.0288473, Final residual = 4.43408e-07, No Iterations 68
DILUPBiCGStab:  Solving for Y, Initial residual = 0.0283412, Final residual = 2.06437e-07, No Iterations 69
DILUPBiCGStab:  Solving for Y, Initial residual = 0.028847, Final residual = 2.60756e-07, No Iterations 69
DILUPBiCGStab:  Solving for Y, Initial residual = 0.0283411, Final residual = 3.12678e-07, No Iterations 69
DILUPBiCGStab:  Solving for Y, Initial residual = 0.0288471, Final residual = 1.85191e-07, No Iterations 69
DILUPBiCGStab:  Solving for Y, Initial residual = 0.0283411, Final residual = 3.61057e-07, No Iterations 68
DILUPBiCGStab:  Solving for Y, Initial residual = 0.0288471, Final residual = 7.9172e-07, No Iterations 68
DILUPBiCGStab:  Solving for Y, Initial residual = 0.0283414, Final residual = 3.40764e-07, No Iterations 68
DILUPBiCGStab:  Solving for Y, Initial residual = 0.0288471, Final residual = 4.35486e-07, No Iterations 68
DILUPBiCGStab:  Solving for Y, Initial residual = 0.0283412, Final residual = 3.27298e-07, No Iterations 68
DILUPBiCGStab:  Solving for Y, Initial residual = 0.0288471, Final residual = 4.9142e-07, No Iterations 68
DILUPBiCGStab:  Solving for Y, Initial residual = 0.0283412, Final residual = 3.46963e-07, No Iterations 68
DILUPBiCGStab:  Solving for Y, Initial residual = 0.0288471, Final residual = 8.56127e-07, No Iterations 66
DILUPBiCGStab:  Solving for Y, Initial residual = 0.0283414, Final residual = 5.53857e-07, No Iterations 67
DILUPBiCGStab:  Solving for Y, Initial residual = 0.0288463, Final residual = 4.57079e-07, No Iterations 68
DILUPBiCGStab:  Solving for Y, Initial residual = 0.0283412, Final residual = 8.82192e-07, No Iterations 65
DILUPBiCGStab:  Solving for Y, Initial residual = 0.0288459, Final residual = 3.28988e-07, No Iterations 67
DILUPBiCGStab:  Solving for Ux, Initial residual = 0.007253, Final residual = 4.84901e-07, No Iterations 2
DILUPBiCGStab:  Solving for Uy, Initial residual = 0.0043704, Final residual = 3.11267e-07, No Iterations 2
DILUPBiCGStab:  Solving for T, Initial residual = 0.00252786, Final residual = 1.46523e-07, No Iterations 2
DICPCG:  Solving for p_rgh, Initial residual = 0.0249952, Final residual = 0.000232076, No Iterations 46
time step continuity errors : sum local = 0.000200905, global = -3.10151e-06, cumulative = -0.000392176
ExecutionTime = 9.92 s  ClockTime = 11 s

Time = 14

DILUPBiCGStab:  Solving for Y, Initial residual = 0.0287841, Final residual = 8.25981e-08, No Iterations 68
DILUPBiCGStab:  Solving for Y, Initial residual = 0.0288244, Final residual = 3.33883e-07, No Iterations 69
DILUPBiCGStab:  Solving for Y, Initial residual = 0.0283197, Final residual = 8.27565e-07, No Iterations 66
DILUPBiCGStab:  Solving for Y, Initial residual = 0.0288253, Final residual = 6.0906e-07, No Iterations 68
DILUPBiCGStab:  Solving for Y, Initial residual = 0.0283199, Final residual = 2.3389e-07, No Iterations 68
DILUPBiCGStab:  Solving for Y, Initial residual = 0.0288247, Final residual = 2.67657e-07, No Iterations 69
DILUPBiCGStab:  Solving for Y, Initial residual = 0.0283197, Final residual = 4.59474e-07, No Iterations 68
DILUPBiCGStab:  Solving for Y, Initial residual = 0.0288249, Final residual = 8.78784e-07, No Iterations 67
DILUPBiCGStab:  Solving for Y, Initial residual = 0.02832, Final residual = 9.61006e-07, No Iterations 67
DILUPBiCGStab:  Solving for Y, Initial residual = 0.0288254, Final residual = 6.8642e-08, No Iterations 69
DILUPBiCGStab:  Solving for Y, Initial residual = 0.0283196, Final residual = 3.59279e-07, No Iterations 67
DILUPBiCGStab:  Solving for Y, Initial residual = 0.0288244, Final residual = 3.32237e-07, No Iterations 68
DILUPBiCGStab:  Solving for Y, Initial residual = 0.0283197, Final residual = 5.6984e-07, No Iterations 68
DILUPBiCGStab:  Solving for Y, Initial residual = 0.028825, Final residual = 4.77183e-07, No Iterations 68
DILUPBiCGStab:  Solving for Y, Initial residual = 0.0283198, Final residual = 4.50667e-07, No Iterations 68
DILUPBiCGStab:  Solving for Y, Initial residual = 0.0288249, Final residual = 4.47846e-07, No Iterations 67
DILUPBiCGStab:  Solving for Y, Initial residual = 0.0283198, Final residual = 5.16322e-07, No Iterations 68
DILUPBiCGStab:  Solving for Y, Initial residual = 0.028824, Final residual = 1.60066e-07, No Iterations 68
DILUPBiCGStab:  Solving for Y, Initial residual = 0.0283196, Final residual = 2.94649e-07, No Iterations 68
DILUPBiCGStab:  Solving for Y, Initial residual = 0.0288247, Final residual = 6.08449e-07, No Iterations 67
DILUPBiCGStab:  Solving for Y, Initial residual = 0.0283199, Final residual = 7.99827e-07, No Iterations 67
DILUPBiCGStab:  Solving for Y, Initial residual = 0.0288252, Final residual = 4.91355e-07, No Iterations 68
DILUPBiCGStab:  Solving for Y, Initial residual = 0.0283198, Final residual = 2.88911e-07, No Iterations 69
DILUPBiCGStab:  Solving for Y, Initial residual = 0.0288247, Final residual = 8.50803e-07, No Iterations 67
DILUPBiCGStab:  Solving for Y, Initial residual = 0.02832, Final residual = 4.77014e-07, No Iterations 68
DILUPBiCGStab:  Solving for Y, Initial residual = 0.0288249, Final residual = 9.14127e-07, No Iterations 68
DILUPBiCGStab:  Solving for Y, Initial residual = 0.02832, Final residual = 6.86361e-07, No Iterations 68
DILUPBiCGStab:  Solving for Y, Initial residual = 0.0288251, Final residual = 1.30489e-07, No Iterations 69
DILUPBiCGStab:  Solving for Y, Initial residual = 0.0283196, Final residual = 4.52901e-07, No Iterations 67
DILUPBiCGStab:  Solving for Y, Initial residual = 0.0288249, Final residual = 1.166e-07, No Iterations 68
DILUPBiCGStab:  Solving for Y, Initial residual = 0.0283196, Final residual = 4.40769e-07, No Iterations 68
DILUPBiCGStab:  Solving for Y, Initial residual = 0.0288249, Final residual = 6.4446e-07, No Iterations 67
DILUPBiCGStab:  Solving for Y, Initial residual = 0.0283199, Final residual = 2.21664e-07, No Iterations 66
DILUPBiCGStab:  Solving for Y, Initial residual = 0.0288247, Final residual = 3.35136e-07, No Iterations 66
DILUPBiCGStab:  Solving for Y, Initial residual = 0.0283197, Final residual = 5.1723e-07, No Iterations 68
DILUPBiCGStab:  Solving for Y, Initial residual = 0.028825, Final residual = 4.99813e-07, No Iterations 68
DILUPBiCGStab:  Solving for Y, Initial residual = 0.0283193, Final residual = 5.57062e-07, No Iterations 68
DILUPBiCGStab:  Solving for Y, Initial residual = 0.028825, Final residual = 5.94987e-07, No Iterations 68
DILUPBiCGStab:  Solving for Y, Initial residual = 0.0283199, Final residual = 5.88079e-07, No Iterations 68
DILUPBiCGStab:  Solving for Y, Initial residual = 0.028825, Final residual = 2.15408e-07, No Iterations 69
DILUPBiCGStab:  Solving for Ux, Initial residual = 0.00717055, Final residual = 4.44863e-07, No Iterations 2
DILUPBiCGStab:  Solving for Uy, Initial residual = 0.00431126, Final residual = 3.04034e-07, No Iterations 2
DILUPBiCGStab:  Solving for T, Initial residual = 0.00233718, Final residual = 1.35234e-07, No Iterations 2
DICPCG:  Solving for p_rgh, Initial residual = 0.0214102, Final residual = 0.000204663, No Iterations 24
time step continuity errors : sum local = 0.000177314, global = -6.62806e-06, cumulative = -0.000398804
ExecutionTime = 10.53 s  ClockTime = 12 s

Time = 15

DILUPBiCGStab:  Solving for Y, Initial residual = 0.0287366, Final residual = 8.58131e-07, No Iterations 67
DILUPBiCGStab:  Solving for Y, Initial residual = 0.0288021, Final residual = 4.81619e-07, No Iterations 67
DILUPBiCGStab:  Solving for Y, Initial residual = 0.0282976, Final residual = 6.12593e-07, No Iterations 67
DILUPBiCGStab:  Solving for Y, Initial residual = 0.0288019, Final residual = 9.82606e-07, No Iterations 68
DILUPBiCGStab:  Solving for Y, Initial residual = 0.0282979, Final residual = 5.82364e-07, No Iterations 68
DILUPBiCGStab:  Solving for Y, Initial residual = 0.0288019, Final residual = 2.26239e-07, No Iterations 68
DILUPBiCGStab:  Solving for Y, Initial residual = 0.0282975, Final residual = 2.60915e-07, No Iterations 69
DILUPBiCGStab:  Solving for Y, Initial residual = 0.0288016, Final residual = 5.79579e-07, No Iterations 68
DILUPBiCGStab:  Solving for Y, Initial residual = 0.0282977, Final residual = 8.81074e-07, No Iterations 66
DILUPBiCGStab:  Solving for Y, Initial residual = 0.028802, Final residual = 2.88083e-07, No Iterations 68
DILUPBiCGStab:  Solving for Y, Initial residual = 0.0282975, Final residual = 5.9211e-07, No Iterations 68
DILUPBiCGStab:  Solving for Y, Initial residual = 0.0288008, Final residual = 1.52659e-07, No Iterations 68
DILUPBiCGStab:  Solving for Y, Initial residual = 0.0282974, Final residual = 4.00375e-07, No Iterations 68
DILUPBiCGStab:  Solving for Y, Initial residual = 0.0288017, Final residual = 3.9096e-07, No Iterations 68
DILUPBiCGStab:  Solving for Y, Initial residual = 0.0282976, Final residual = 5.16658e-07, No Iterations 68
DILUPBiCGStab:  Solving for Y, Initial residual = 0.0288018, Final residual = 6.71157e-07, No Iterations 68
DILUPBiCGStab:  Solving for Y, Initial residual = 0.0282977, Final residual = 1.83109e-07, No Iterations 69
DILUPBiCGStab:  Solving for Y, Initial residual = 0.0288015, Final residual = 6.16485e-07, No Iterations 68
DILUPBiCGStab:  Solving for Y, Initial residual = 0.0282977, Final residual = 7.32162e-07, No Iterations 69
DILUPBiCGStab:  Solving for Y, Initial residual = 0.028802, Final residual = 4.11469e-07, No Iterations 68
DILUPBiCGStab:  Solving for Y, Initial residual = 0.0282976, Final residual = 3.7681e-07, No Iterations 68
DILUPBiCGStab:  Solving for Y, Initial residual = 0.0288017, Final residual = 5.98786e-07, No Iterations 68
DILUPBiCGStab:  Solving for Y, Initial residual = 0.0282977, Final residual = 4.8705e-07, No Iterations 67
DILUPBiCGStab:  Solving for Y, Initial residual = 0.0288018, Final residual = 6.95397e-07, No Iterations 68
DILUPBiCGStab:  Solving for Y, Initial residual = 0.0282977, Final residual = 2.88239e-07, No Iterations 69
DILUPBiCGStab:  Solving for Y, Initial residual = 0.0288016, Final residual = 4.43465e-07, No Iterations 68
DILUPBiCGStab:  Solving for Y, Initial residual = 0.0282976, Final residual = 1.87306e-07, No Iterations 69
DILUPBiCGStab:  Solving for Y, Initial residual = 0.0288015, Final residual = 4.62858e-07, No Iterations 68
DILUPBiCGStab:  Solving for Y, Initial residual = 0.0282976, Final residual = 3.11104e-07, No Iterations 68
DILUPBiCGStab:  Solving for Y, Initial residual = 0.0288016, Final residual = 4.57956e-07, No Iterations 68
DILUPBiCGStab:  Solving for Y, Initial residual = 0.0282976, Final residual = 3.02254e-07, No Iterations 69
DILUPBiCGStab:  Solving for Y, Initial residual = 0.0288016, Final residual = 8.62906e-07, No Iterations 66
DILUPBiCGStab:  Solving for Y, Initial residual = 0.0282978, Final residual = 3.58776e-07, No Iterations 68
DILUPBiCGStab:  Solving for Y, Initial residual = 0.0288017, Final residual = 1.67835e-07, No Iterations 68
DILUPBiCGStab:  Solving for Y, Initial residual = 0.0282974, Final residual = 2.73069e-07, No Iterations 68
DILUPBiCGStab:  Solving for Y, Initial residual = 0.0288016, Final residual = 5.27169e-07, No Iterations 68
DILUPBiCGStab:  Solving for Y, Initial residual = 0.0282976, Final residual = 8.68976e-07, No Iterations 67
DILUPBiCGStab:  Solving for Y, Initial residual = 0.0288022, Final residual = 3.67071e-07, No Iterations 68
DILUPBiCGStab:  Solving for Y, Initial residual = 0.0282975, Final residual = 5.72968e-07, No Iterations 68
DILUPBiCGStab:  Solving for Y, Initial residual = 0.0288008, Final residual = 4.56476e-07, No Iterations 68
DILUPBiCGStab:  Solving for Ux, Initial residual = 0.00704549, Final residual = 4.23545e-07, No Iterations 2
DILUPBiCGStab:  Solving for Uy, Initial residual = 0.0041977, Final residual = 2.99266e-07, No Iterations 2
DILUPBiCGStab:  Solving for T, Initial residual = 0.00217376, Final residual = 1.2594e-07, No Iterations 2
DICPCG:  Solving for p_rgh, Initial residual = 0.0189343, Final residual = 0.00017843, No Iterations 43
time step continuity errors : sum local = 0.000152137, global = 4.79184e-06, cumulative = -0.000394012
ExecutionTime = 11.17 s  ClockTime = 12 s

Time = 16

DILUPBiCGStab:  Solving for Y, Initial residual = 0.0286935, Final residual = 9.97679e-07, No Iterations 67
DILUPBiCGStab:  Solving for Y, Initial residual = 0.0287803, Final residual = 2.21923e-07, No Iterations 69
DILUPBiCGStab:  Solving for Y, Initial residual = 0.0282764, Final residual = 3.50653e-07, No Iterations 68
DILUPBiCGStab:  Solving for Y, Initial residual = 0.0287797, Final residual = 2.79437e-07, No Iterations 69
DILUPBiCGStab:  Solving for Y, Initial residual = 0.0282764, Final residual = 8.25687e-07, No Iterations 67
DILUPBiCGStab:  Solving for Y, Initial residual = 0.0287802, Final residual = 2.28113e-07, No Iterations 68
DILUPBiCGStab:  Solving for Y, Initial residual = 0.0282762, Final residual = 4.43819e-07, No Iterations 68
DILUPBiCGStab:  Solving for Y, Initial residual = 0.0287798, Final residual = 3.47877e-07, No Iterations 68
DILUPBiCGStab:  Solving for Y, Initial residual = 0.0282764, Final residual = 5.14197e-07, No Iterations 68
DILUPBiCGStab:  Solving for Y, Initial residual = 0.0287799, Final residual = 7.5641e-07, No Iterations 67
DILUPBiCGStab:  Solving for Y, Initial residual = 0.0282767, Final residual = 4.93999e-07, No Iterations 67
DILUPBiCGStab:  Solving for Y, Initial residual = 0.0287798, Final residual = 8.49605e-07, No Iterations 67
DILUPBiCGStab:  Solving for Y, Initial residual = 0.0282767, Final residual = 6.39429e-07, No Iterations 68
DILUPBiCGStab:  Solving for Y, Initial residual = 0.02878, Final residual = 4.57034e-07, No Iterations 68
DILUPBiCGStab:  Solving for Y, Initial residual = 0.0282765, Final residual = 2.14319e-07, No Iterations 68
DILUPBiCGStab:  Solving for Y, Initial residual = 0.0287796, Final residual = 1.80606e-07, No Iterations 68
DILUPBiCGStab:  Solving for Y, Initial residual = 0.0282762, Final residual = 8.46841e-07, No Iterations 66
DILUPBiCGStab:  Solving for Y, Initial residual = 0.0287802, Final residual = 3.42974e-07, No Iterations 68
DILUPBiCGStab:  Solving for Y, Initial residual = 0.0282764, Final residual = 3.03608e-07, No Iterations 69
DILUPBiCGStab:  Solving for Y, Initial residual = 0.0287797, Final residual = 5.10498e-07, No Iterations 68
DILUPBiCGStab:  Solving for Y, Initial residual = 0.0282765, Final residual = 5.65863e-07, No Iterations 68
DILUPBiCGStab:  Solving for Y, Initial residual = 0.0287799, Final residual = 6.3676e-07, No Iterations 68
DILUPBiCGStab:  Solving for Y, Initial residual = 0.0282766, Final residual = 8.75866e-07, No Iterations 66
DILUPBiCGStab:  Solving for Y, Initial residual = 0.0287802, Final residual = 4.49017e-07, No Iterations 67
DILUPBiCGStab:  Solving for Y, Initial residual = 0.0282765, Final residual = 3.26709e-07, No Iterations 68
DILUPBiCGStab:  Solving for Y, Initial residual = 0.0287797, Final residual = 2.3545e-07, No Iterations 67
DILUPBiCGStab:  Solving for Y, Initial residual = 0.0282763, Final residual = 5.22673e-07, No Iterations 68
DILUPBiCGStab:  Solving for Y, Initial residual = 0.0287799, Final residual = 2.66274e-07, No Iterations 69
DILUPBiCGStab:  Solving for Y, Initial residual = 0.0282764, Final residual = 3.67899e-07, No Iterations 68
DILUPBiCGStab:  Solving for Y, Initial residual = 0.0287797, Final residual = 2.77081e-07, No Iterations 68
DILUPBiCGStab:  Solving for Y, Initial residual = 0.0282764, Final residual = 4.57896e-07, No Iterations 68
DILUPBiCGStab:  Solving for Y, Initial residual = 0.0287798, Final residual = 3.9925e-07, No Iterations 68
DILUPBiCGStab:  Solving for Y, Initial residual = 0.0282765, Final residual = 6.54456e-07, No Iterations 68
DILUPBiCGStab:  Solving for Y, Initial residual = 0.02878, Final residual = 4.7173e-07, No Iterations 68
DILUPBiCGStab:  Solving for Y, Initial residual = 0.0282765, Final residual = 1.90092e-07, No Iterations 68
DILUPBiCGStab:  Solving for Y, Initial residual = 0.0287795, Final residual = 3.86024e-07, No Iterations 68
[...]
DILUPBiCGStab:  Solving for Y, Initial residual = 0.0271506, Final residual = 7.97443e-07, No Iterations 67
DILUPBiCGStab:  Solving for Y, Initial residual = 0.0267089, Final residual = 9.21707e-07, No Iterations 67
DILUPBiCGStab:  Solving for Y, Initial residual = 0.0271506, Final residual = 6.7651e-07, No Iterations 67
DILUPBiCGStab:  Solving for Y, Initial residual = 0.0267089, Final residual = 7.87833e-07, No Iterations 67
DILUPBiCGStab:  Solving for Y, Initial residual = 0.0271504, Final residual = 7.3034e-07, No Iterations 67
DILUPBiCGStab:  Solving for Y, Initial residual = 0.0267089, Final residual = 3.29308e-07, No Iterations 68
DILUPBiCGStab:  Solving for Y, Initial residual = 0.02715, Final residual = 7.21405e-07, No Iterations 67
DILUPBiCGStab:  Solving for Y, Initial residual = 0.0267089, Final residual = 9.41292e-07, No Iterations 67
DILUPBiCGStab:  Solving for Y, Initial residual = 0.0271506, Final residual = 7.93555e-07, No Iterations 67
DILUPBiCGStab:  Solving for Y, Initial residual = 0.0267089, Final residual = 7.03837e-07, No Iterations 67
DILUPBiCGStab:  Solving for Y, Initial residual = 0.0271503, Final residual = 6.33448e-07, No Iterations 67
DILUPBiCGStab:  Solving for Y, Initial residual = 0.0267088, Final residual = 7.44573e-07, No Iterations 67
DILUPBiCGStab:  Solving for Y, Initial residual = 0.0271504, Final residual = 7.87196e-07, No Iterations 67
DILUPBiCGStab:  Solving for Y, Initial residual = 0.0267089, Final residual = 9.63218e-08, No Iterations 68
DILUPBiCGStab:  Solving for Y, Initial residual = 0.0271498, Final residual = 6.36473e-07, No Iterations 67
DILUPBiCGStab:  Solving for Y, Initial residual = 0.0267088, Final residual = 6.60181e-07, No Iterations 67
DILUPBiCGStab:  Solving for Y, Initial residual = 0.0271503, Final residual = 2.02749e-07, No Iterations 67
DILUPBiCGStab:  Solving for Y, Initial residual = 0.0267086, Final residual = 9.03095e-07, No Iterations 67
DILUPBiCGStab:  Solving for Y, Initial residual = 0.0271505, Final residual = 4.26309e-07, No Iterations 67
DILUPBiCGStab:  Solving for Y, Initial residual = 0.0267087, Final residual = 1.60877e-07, No Iterations 67
DILUPBiCGStab:  Solving for Y, Initial residual = 0.0271497, Final residual = 1.6142e-07, No Iterations 68
DILUPBiCGStab:  Solving for Y, Initial residual = 0.0267086, Final residual = 3.36331e-07, No Iterations 67
DILUPBiCGStab:  Solving for Y, Initial residual = 0.02715, Final residual = 7.56541e-07, No Iterations 68
DILUPBiCGStab:  Solving for Y, Initial residual = 0.0267089, Final residual = 5.94547e-07, No Iterations 68
DILUPBiCGStab:  Solving for Y, Initial residual = 0.0271502, Final residual = 9.05842e-07, No Iterations 67
DILUPBiCGStab:  Solving for Y, Initial residual = 0.026709, Final residual = 7.65781e-07, No Iterations 67
DILUPBiCGStab:  Solving for Y, Initial residual = 0.0271504, Final residual = 3.80554e-07, No Iterations 68
DILUPBiCGStab:  Solving for Y, Initial residual = 0.0267087, Final residual = 6.11789e-07, No Iterations 67
DILUPBiCGStab:  Solving for Y, Initial residual = 0.0271503, Final residual = 6.02825e-07, No Iterations 66
DILUPBiCGStab:  Solving for Y, Initial residual = 0.0267085, Final residual = 5.47791e-07, No Iterations 67
DILUPBiCGStab:  Solving for Y, Initial residual = 0.0271502, Final residual = 2.81395e-07, No Iterations 68
DILUPBiCGStab:  Solving for Y, Initial residual = 0.0267087, Final residual = 2.1526e-07, No Iterations 67
DILUPBiCGStab:  Solving for Y, Initial residual = 0.0271497, Final residual = 2.23658e-07, No Iterations 68
DILUPBiCGStab:  Solving for Y, Initial residual = 0.0267086, Final residual = 8.38401e-07, No Iterations 66
DILUPBiCGStab:  Solving for Y, Initial residual = 0.0271505, Final residual = 4.36846e-07, No Iterations 68
DILUPBiCGStab:  Solving for Y, Initial residual = 0.0267088, Final residual = 4.02581e-07, No Iterations 66
DILUPBiCGStab:  Solving for Y, Initial residual = 0.0271499, Final residual = 5.42197e-07, No Iterations 67
DILUPBiCGStab:  Solving for Y, Initial residual = 0.0267083, Final residual = 6.26334e-07, No Iterations 68
DILUPBiCGStab:  Solving for Y, Initial residual = 0.0271503, Final residual = 7.59298e-07, No Iterations 67
DILUPBiCGStab:  Solving for Ux, Initial residual = 8.99677e-05, Final residual = 1.01974e-07, No Iterations 1
DILUPBiCGStab:  Solving for Uy, Initial residual = 5.47628e-05, Final residual = 7.05745e-08, No Iterations 1
DILUPBiCGStab:  Solving for T, Initial residual = 3.81674e-06, Final residual = 5.77048e-07, No Iterations 1
DICPCG:  Solving for p_rgh, Initial residual = 9.20826e-05, Final residual = 8.86243e-07, No Iterations 33
time step continuity errors : sum local = 6.3803e-07, global = 1.08701e-07, cumulative = -0.000577476
ExecutionTime = 370.7 s  ClockTime = 374 s

Time = 598

DILUPBiCGStab:  Solving for Y, Initial residual = 0.0267096, Final residual = 7.34868e-07, No Iterations 67
DILUPBiCGStab:  Solving for Y, Initial residual = 0.0271512, Final residual = 5.14207e-07, No Iterations 66
DILUPBiCGStab:  Solving for Y, Initial residual = 0.0267093, Final residual = 8.48618e-07, No Iterations 67
DILUPBiCGStab:  Solving for Y, Initial residual = 0.0271513, Final residual = 4.32445e-07, No Iterations 68
DILUPBiCGStab:  Solving for Y, Initial residual = 0.0267096, Final residual = 6.65925e-07, No Iterations 67
DILUPBiCGStab:  Solving for Y, Initial residual = 0.0271512, Final residual = 9.25913e-07, No Iterations 67
DILUPBiCGStab:  Solving for Y, Initial residual = 0.0267098, Final residual = 4.79409e-07, No Iterations 67
DILUPBiCGStab:  Solving for Y, Initial residual = 0.027151, Final residual = 6.56262e-08, No Iterations 69
DILUPBiCGStab:  Solving for Y, Initial residual = 0.0267094, Final residual = 5.70631e-07, No Iterations 67
DILUPBiCGStab:  Solving for Y, Initial residual = 0.0271511, Final residual = 6.93812e-07, No Iterations 67
DILUPBiCGStab:  Solving for Y, Initial residual = 0.0267097, Final residual = 2.1029e-08, No Iterations 68
DILUPBiCGStab:  Solving for Y, Initial residual = 0.0271506, Final residual = 2.47224e-07, No Iterations 68
DILUPBiCGStab:  Solving for Y, Initial residual = 0.0267095, Final residual = 8.60518e-07, No Iterations 66
DILUPBiCGStab:  Solving for Y, Initial residual = 0.0271513, Final residual = 7.05171e-07, No Iterations 67
DILUPBiCGStab:  Solving for Y, Initial residual = 0.0267097, Final residual = 4.67792e-07, No Iterations 67
DILUPBiCGStab:  Solving for Y, Initial residual = 0.027151, Final residual = 4.72803e-07, No Iterations 66
DILUPBiCGStab:  Solving for Y, Initial residual = 0.0267094, Final residual = 6.60171e-07, No Iterations 67
DILUPBiCGStab:  Solving for Y, Initial residual = 0.0271512, Final residual = 1.95671e-07, No Iterations 68
DILUPBiCGStab:  Solving for Y, Initial residual = 0.0267093, Final residual = 8.08562e-07, No Iterations 67
DILUPBiCGStab:  Solving for Y, Initial residual = 0.0271513, Final residual = 8.57359e-07, No Iterations 66
DILUPBiCGStab:  Solving for Y, Initial residual = 0.0267098, Final residual = 8.79922e-07, No Iterations 67
DILUPBiCGStab:  Solving for Y, Initial residual = 0.0271514, Final residual = 6.4788e-07, No Iterations 67
DILUPBiCGStab:  Solving for Y, Initial residual = 0.0267097, Final residual = 7.99137e-07, No Iterations 66
DILUPBiCGStab:  Solving for Y, Initial residual = 0.0271513, Final residual = 5.37643e-07, No Iterations 67
DILUPBiCGStab:  Solving for Y, Initial residual = 0.0267096, Final residual = 5.14768e-07, No Iterations 67
DILUPBiCGStab:  Solving for Y, Initial residual = 0.027151, Final residual = 8.21857e-07, No Iterations 67
DILUPBiCGStab:  Solving for Y, Initial residual = 0.0267098, Final residual = 9.07194e-07, No Iterations 67
DILUPBiCGStab:  Solving for Y, Initial residual = 0.0271514, Final residual = 4.73553e-07, No Iterations 66
DILUPBiCGStab:  Solving for Y, Initial residual = 0.0267095, Final residual = 6.0327e-08, No Iterations 68
DILUPBiCGStab:  Solving for Y, Initial residual = 0.0271506, Final residual = 1.25823e-07, No Iterations 68
DILUPBiCGStab:  Solving for Y, Initial residual = 0.0267094, Final residual = 8.1215e-07, No Iterations 66
DILUPBiCGStab:  Solving for Y, Initial residual = 0.0271513, Final residual = 2.30248e-07, No Iterations 68
DILUPBiCGStab:  Solving for Y, Initial residual = 0.0267092, Final residual = 4.73779e-07, No Iterations 67
DILUPBiCGStab:  Solving for Y, Initial residual = 0.027151, Final residual = 7.36291e-08, No Iterations 69
DILUPBiCGStab:  Solving for Y, Initial residual = 0.0267094, Final residual = 7.79285e-07, No Iterations 67
DILUPBiCGStab:  Solving for Y, Initial residual = 0.0271513, Final residual = 7.32401e-07, No Iterations 66
DILUPBiCGStab:  Solving for Y, Initial residual = 0.0267095, Final residual = 9.81327e-07, No Iterations 67
DILUPBiCGStab:  Solving for Y, Initial residual = 0.0271515, Final residual = 6.60744e-07, No Iterations 68
DILUPBiCGStab:  Solving for Y, Initial residual = 0.0267097, Final residual = 9.31367e-07, No Iterations 67
DILUPBiCGStab:  Solving for Y, Initial residual = 0.0271514, Final residual = 8.62536e-07, No Iterations 67
DILUPBiCGStab:  Solving for Ux, Initial residual = 8.94366e-05, Final residual = 1.01476e-07, No Iterations 1
DILUPBiCGStab:  Solving for Uy, Initial residual = 5.44685e-05, Final residual = 7.01864e-08, No Iterations 1
DILUPBiCGStab:  Solving for T, Initial residual = 3.78757e-06, Final residual = 5.72154e-07, No Iterations 1
DICPCG:  Solving for p_rgh, Initial residual = 9.12783e-05, Final residual = 8.80599e-07, No Iterations 33
time step continuity errors : sum local = 6.33928e-07, global = 1.07752e-07, cumulative = -0.000577368
ExecutionTime = 371.31 s  ClockTime = 375 s

Time = 599

DILUPBiCGStab:  Solving for Y, Initial residual = 0.0267105, Final residual = 8.41477e-07, No Iterations 66
DILUPBiCGStab:  Solving for Y, Initial residual = 0.0271522, Final residual = 9.59656e-08, No Iterations 68
DILUPBiCGStab:  Solving for Y, Initial residual = 0.0267102, Final residual = 6.09483e-07, No Iterations 66
DILUPBiCGStab:  Solving for Y, Initial residual = 0.0271519, Final residual = 1.34535e-07, No Iterations 69
DILUPBiCGStab:  Solving for Y, Initial residual = 0.0267101, Final residual = 6.38536e-07, No Iterations 67
DILUPBiCGStab:  Solving for Y, Initial residual = 0.027152, Final residual = 8.8075e-07, No Iterations 66
DILUPBiCGStab:  Solving for Y, Initial residual = 0.0267106, Final residual = 5.38084e-07, No Iterations 68
DILUPBiCGStab:  Solving for Y, Initial residual = 0.0271519, Final residual = 8.34888e-07, No Iterations 67
DILUPBiCGStab:  Solving for Y, Initial residual = 0.0267106, Final residual = 7.82461e-07, No Iterations 67
DILUPBiCGStab:  Solving for Y, Initial residual = 0.0271521, Final residual = 4.31861e-07, No Iterations 68
DILUPBiCGStab:  Solving for Y, Initial residual = 0.0267104, Final residual = 7.05342e-07, No Iterations 67
DILUPBiCGStab:  Solving for Y, Initial residual = 0.027152, Final residual = 8.86543e-07, No Iterations 66
DILUPBiCGStab:  Solving for Y, Initial residual = 0.0267106, Final residual = 5.72251e-07, No Iterations 67
DILUPBiCGStab:  Solving for Y, Initial residual = 0.0271519, Final residual = 9.1656e-07, No Iterations 67
DILUPBiCGStab:  Solving for Y, Initial residual = 0.0267106, Final residual = 4.88224e-08, No Iterations 68
DILUPBiCGStab:  Solving for Y, Initial residual = 0.0271514, Final residual = 4.65228e-08, No Iterations 68
DILUPBiCGStab:  Solving for Y, Initial residual = 0.0267102, Final residual = 6.65133e-07, No Iterations 67
DILUPBiCGStab:  Solving for Y, Initial residual = 0.027152, Final residual = 8.32067e-07, No Iterations 66
DILUPBiCGStab:  Solving for Y, Initial residual = 0.0267106, Final residual = 4.90292e-07, No Iterations 68
DILUPBiCGStab:  Solving for Y, Initial residual = 0.0271518, Final residual = 8.69841e-07, No Iterations 67
DILUPBiCGStab:  Solving for Y, Initial residual = 0.0267106, Final residual = 6.81876e-07, No Iterations 67
DILUPBiCGStab:  Solving for Y, Initial residual = 0.027152, Final residual = 7.13748e-07, No Iterations 67
DILUPBiCGStab:  Solving for Y, Initial residual = 0.0267105, Final residual = 6.22645e-07, No Iterations 67
DILUPBiCGStab:  Solving for Y, Initial residual = 0.027152, Final residual = 5.11044e-07, No Iterations 66
DILUPBiCGStab:  Solving for Y, Initial residual = 0.0267101, Final residual = 1.01421e-07, No Iterations 69
DILUPBiCGStab:  Solving for Y, Initial residual = 0.0271515, Final residual = 8.65936e-07, No Iterations 67
DILUPBiCGStab:  Solving for Y, Initial residual = 0.0267106, Final residual = 6.81052e-07, No Iterations 67
DILUPBiCGStab:  Solving for Y, Initial residual = 0.027152, Final residual = 3.10259e-07, No Iterations 67
DILUPBiCGStab:  Solving for Y, Initial residual = 0.02671, Final residual = 7.3157e-07, No Iterations 67
DILUPBiCGStab:  Solving for Y, Initial residual = 0.0271521, Final residual = 4.91928e-07, No Iterations 67
DILUPBiCGStab:  Solving for Y, Initial residual = 0.0267104, Final residual = 3.33773e-07, No Iterations 68
DILUPBiCGStab:  Solving for Y, Initial residual = 0.0271517, Final residual = 8.71813e-07, No Iterations 67
DILUPBiCGStab:  Solving for Y, Initial residual = 0.0267106, Final residual = 2.75283e-07, No Iterations 68
DILUPBiCGStab:  Solving for Y, Initial residual = 0.0271516, Final residual = 9.14081e-07, No Iterations 66
DILUPBiCGStab:  Solving for Y, Initial residual = 0.0267106, Final residual = 5.95714e-07, No Iterations 67
DILUPBiCGStab:  Solving for Y, Initial residual = 0.0271519, Final residual = 2.00264e-07, No Iterations 69
DILUPBiCGStab:  Solving for Y, Initial residual = 0.0267103, Final residual = 8.18838e-07, No Iterations 67
DILUPBiCGStab:  Solving for Y, Initial residual = 0.0271521, Final residual = 1.50956e-07, No Iterations 68
DILUPBiCGStab:  Solving for Y, Initial residual = 0.0267101, Final residual = 6.97174e-07, No Iterations 66
DILUPBiCGStab:  Solving for Y, Initial residual = 0.027152, Final residual = 9.34891e-07, No Iterations 67
DILUPBiCGStab:  Solving for Ux, Initial residual = 8.89092e-05, Final residual = 1.00982e-07, No Iterations 1
DILUPBiCGStab:  Solving for Uy, Initial residual = 5.41747e-05, Final residual = 6.97975e-08, No Iterations 1
DILUPBiCGStab:  Solving for T, Initial residual = 3.75856e-06, Final residual = 5.673e-07, No Iterations 1
DICPCG:  Solving for p_rgh, Initial residual = 9.04808e-05, Final residual = 8.75e-07, No Iterations 33
time step continuity errors : sum local = 6.29858e-07, global = 1.06812e-07, cumulative = -0.000577262
ExecutionTime = 371.93 s  ClockTime = 375 s

Time = 600

DILUPBiCGStab:  Solving for Y, Initial residual = 0.0267105, Final residual = 8.73291e-07, No Iterations 66
DILUPBiCGStab:  Solving for Y, Initial residual = 0.027153, Final residual = 8.861e-07, No Iterations 66
DILUPBiCGStab:  Solving for Y, Initial residual = 0.0267114, Final residual = 1.17501e-08, No Iterations 69
DILUPBiCGStab:  Solving for Y, Initial residual = 0.0271522, Final residual = 5.70907e-07, No Iterations 67
DILUPBiCGStab:  Solving for Y, Initial residual = 0.0267113, Final residual = 7.37547e-07, No Iterations 67
DILUPBiCGStab:  Solving for Y, Initial residual = 0.0271529, Final residual = 1.37157e-07, No Iterations 68
DILUPBiCGStab:  Solving for Y, Initial residual = 0.0267111, Final residual = 3.75042e-07, No Iterations 68
DILUPBiCGStab:  Solving for Y, Initial residual = 0.0271526, Final residual = 9.85639e-07, No Iterations 66
DILUPBiCGStab:  Solving for Y, Initial residual = 0.0267114, Final residual = 3.62577e-07, No Iterations 68
DILUPBiCGStab:  Solving for Y, Initial residual = 0.0271526, Final residual = 7.58755e-07, No Iterations 67
DILUPBiCGStab:  Solving for Y, Initial residual = 0.0267114, Final residual = 7.4894e-07, No Iterations 67
DILUPBiCGStab:  Solving for Y, Initial residual = 0.0271529, Final residual = 7.52361e-07, No Iterations 67
DILUPBiCGStab:  Solving for Y, Initial residual = 0.0267114, Final residual = 2.74438e-07, No Iterations 68
DILUPBiCGStab:  Solving for Y, Initial residual = 0.0271525, Final residual = 9.73851e-07, No Iterations 68
DILUPBiCGStab:  Solving for Y, Initial residual = 0.0267105, Final residual = 8.62105e-07, No Iterations 67
DILUPBiCGStab:  Solving for Y, Initial residual = 0.027153, Final residual = 7.46003e-07, No Iterations 67
DILUPBiCGStab:  Solving for Y, Initial residual = 0.0267114, Final residual = 7.55903e-07, No Iterations 67
DILUPBiCGStab:  Solving for Y, Initial residual = 0.0271529, Final residual = 8.54931e-07, No Iterations 65
DILUPBiCGStab:  Solving for Y, Initial residual = 0.026711, Final residual = 4.16185e-07, No Iterations 67
DILUPBiCGStab:  Solving for Y, Initial residual = 0.0271519, Final residual = 8.10073e-07, No Iterations 67
DILUPBiCGStab:  Solving for Y, Initial residual = 0.0267114, Final residual = 7.36934e-07, No Iterations 67
DILUPBiCGStab:  Solving for Y, Initial residual = 0.0271529, Final residual = 6.47426e-07, No Iterations 67
DILUPBiCGStab:  Solving for Y, Initial residual = 0.0267113, Final residual = 6.1506e-07, No Iterations 66
DILUPBiCGStab:  Solving for Y, Initial residual = 0.0271527, Final residual = 1.93401e-07, No Iterations 67
DILUPBiCGStab:  Solving for Y, Initial residual = 0.026711, Final residual = 8.76646e-07, No Iterations 67
DILUPBiCGStab:  Solving for Y, Initial residual = 0.027153, Final residual = 7.08258e-07, No Iterations 67
DILUPBiCGStab:  Solving for Y, Initial residual = 0.0267113, Final residual = 3.97807e-07, No Iterations 67
DILUPBiCGStab:  Solving for Y, Initial residual = 0.0271526, Final residual = 9.77715e-07, No Iterations 67
DILUPBiCGStab:  Solving for Y, Initial residual = 0.0267115, Final residual = 6.61923e-07, No Iterations 66
DILUPBiCGStab:  Solving for Y, Initial residual = 0.0271528, Final residual = 1.75118e-07, No Iterations 68
DILUPBiCGStab:  Solving for Y, Initial residual = 0.0267111, Final residual = 5.45978e-07, No Iterations 68
DILUPBiCGStab:  Solving for Y, Initial residual = 0.0271527, Final residual = 3.80652e-07, No Iterations 67
DILUPBiCGStab:  Solving for Y, Initial residual = 0.0267112, Final residual = 4.87862e-07, No Iterations 68
DILUPBiCGStab:  Solving for Y, Initial residual = 0.0271527, Final residual = 8.80705e-07, No Iterations 67
DILUPBiCGStab:  Solving for Y, Initial residual = 0.0267114, Final residual = 7.48401e-07, No Iterations 67
DILUPBiCGStab:  Solving for Y, Initial residual = 0.0271529, Final residual = 5.18542e-07, No Iterations 68
DILUPBiCGStab:  Solving for Y, Initial residual = 0.0267112, Final residual = 8.07229e-07, No Iterations 67
DILUPBiCGStab:  Solving for Y, Initial residual = 0.027153, Final residual = 1.12356e-07, No Iterations 67
DILUPBiCGStab:  Solving for Y, Initial residual = 0.026711, Final residual = 7.289e-07, No Iterations 67
DILUPBiCGStab:  Solving for Y, Initial residual = 0.0271529, Final residual = 7.93124e-07, No Iterations 67
DILUPBiCGStab:  Solving for Ux, Initial residual = 8.83851e-05, Final residual = 1.0049e-07, No Iterations 1
DILUPBiCGStab:  Solving for Uy, Initial residual = 5.38811e-05, Final residual = 6.94081e-08, No Iterations 1
DILUPBiCGStab:  Solving for T, Initial residual = 3.7297e-06, Final residual = 5.62486e-07, No Iterations 1
DICPCG:  Solving for p_rgh, Initial residual = 8.96901e-05, Final residual = 8.69438e-07, No Iterations 33
time step continuity errors : sum local = 6.25817e-07, global = 1.05877e-07, cumulative = -0.000577156
ExecutionTime = 372.6 s  ClockTime = 376 s

forces forces write:
    sum of forces:
        pressure : (0.750579 9.63863 1.18112e-18)
        viscous  : (0.0722883 -2.43818e-05 -6.07838e-23)
        porous   : (0 0 0)
    sum of moments:
        pressure : (-5.06028 0.394054 5.06952)
        viscous  : (1.28004e-05 0.0379513 -0.00147788)
        porous   : (0 0 0)

forceCoeffs forceCoeffs write:
    Cm    = 0.00464405
    Cd    = 0.00884581
    Cl    = 0.103615
    Cl(f) = 0.0564514
    Cl(r) = 0.0471633

End

